10gs_ligand
 OpenBabel03281614573D

 33 34  0  0  0  0  0  0  0  0999 V2000
   15.0880   10.7980   23.5470 N   0  0  0  0  0
   16.5200    8.5150   25.9400 O   0  0  0  0  0
    7.5690   10.0680   29.2840 O   0  0  0  0  0
   16.5780    8.5240   23.7440 O   0  0  0  0  0
    7.1160    9.9570   31.4330 O   0  0  0  0  0
   11.2930    7.9360   25.4350 O   0  0  0  0  0
   10.5220    8.0230   30.0840 O   0  0  0  0  0
   13.6350    9.3270   24.9080 C   0  0  0  0  0
   13.3940    8.7080   26.2710 C   0  0  0  0  0
   10.7260    5.4840   28.2060 C   0  0  0  0  0
    9.7290    3.8040   26.2620 C   0  0  0  0  0
   11.7260    7.6420   27.6280 N   0  0  0  0  0
    8.5120    7.4680   29.2290 N   0  0  0  0  0
   11.2910    4.5240   26.8100 S   0  0  0  0  0
    7.4370    2.0010   29.4300 C   0  0  0  0  0
    4.3920    5.3390   31.0270 C   0  0  0  0  0
    6.8930    3.0370   28.6730 C   0  0  0  0  0
    8.7230    1.5500   29.1610 C   0  0  0  0  0
    4.2500    6.4590   30.2200 C   0  0  0  0  0
    5.6110    5.0810   31.6400 C   0  0  0  0  0
    7.6400    3.6140   27.6500 C   0  0  0  0  0
    9.4640    2.1350   28.1330 C   0  0  0  0  0
    5.3300    7.3150   30.0270 C   0  0  0  0  0
    6.6830    5.9410   31.4410 C   0  0  0  0  0
   15.0100    9.9870   24.7920 C   0  0  0  0  0
   10.4720    6.9670   27.9340 C   0  0  0  0  0
    7.7400    7.9330   30.3660 C   0  0  0  0  0
   16.1150    8.9240   24.8300 C   0  0  0  0  0
    7.4520    9.4330   30.3540 C   0  0  0  0  0
   12.0450    8.0460   26.4020 C   0  0  0  0  0
    9.8340    7.5500   29.1800 C   0  0  0  0  0
    8.9300    3.1710   27.3700 C   0  0  0  0  0
    6.5550    7.0620   30.6330 C   0  0  0  0  0
  1 25  1  0  0  0
  2 28  1  0  0  0
  3 29  1  0  0  0
  4 28  2  0  0  0
  5 29  2  0  0  0
  6 30  2  0  0  0
  7 31  2  0  0  0
  8  9  1  0  0  0
  8 25  1  0  0  0
  9 30  1  0  0  0
 10 14  1  0  0  0
 10 26  1  0  0  0
 11 14  1  0  0  0
 11 32  1  0  0  0
 12 26  1  0  0  0
 12 30  1  0  0  0
 13 27  1  0  0  0
 13 31  1  0  0  0
 15 17  2  0  0  0
 15 18  1  0  0  0
 16 19  2  0  0  0
 16 20  1  0  0  0
 17 21  1  0  0  0
 18 22  2  0  0  0
 19 23  1  0  0  0
 20 24  2  0  0  0
 21 32  2  0  0  0
 22 32  1  0  0  0
 23 33  2  0  0  0
 24 33  1  0  0  0
 25 28  1  0  0  0
 26 31  1  0  0  0
 27 29  1  0  0  0
 27 33  1  0  0  0
M  END
>  <MOLID> (10gs_ligand)
10gs_ligand

>  <SMILES_CANONICAL> (10gs_ligand)
O=C(N[C@H](C(=O)N[C@H](c1ccccc1)C(=O)O)CSCc1ccccc1)CC[C@@H](C(=O)O)N	10gs_ligand

>  <FINGERPRINT> (10gs_ligand)
0000000000000011000000000000001001000001100000000110000000000000001000000001001000100101000010000000110000010001000001100100000000000000000010000000000011000000000000000000000000000000000000000000000000000000000000000000000000100010000000000001000000001000000000000110000000000000000000000000001000001011010010001100000000001000001000000000000000000000010000000000011110110000000000000000011100000001100110000011011001000001000001000010000100000001110000000001110000000100000000000000000000001000000000000000100000011100000000000000000000001000000000100000000000000001000000000000000001000000000000000000000000000000010000000001001100000001110000000000000000000000000000000011100000000000100011100000000000000011000000000000001000000001000001100101000000000000000110000000000000000100000000100000000011000000000000000000000000000000000000000000000001000000000000001001000000000000000000000000000000001000000000000000000100000000000000000000011000000000001000110010000000000100011000000000000000000011000000010000011000000000

>  <MACCS166> (10gs_ligand)
000000000000000000000000000000000000000000000000010001000000000000000000000100100001010101110010001000010000011000001100001010010011000101110100111000101111111010111000

>  <OB_MW> (10gs_ligand)
473.162

>  <OB_logP> (10gs_ligand)
3.0209

>  <OB_PSA> (10gs_ligand)
184.12

>  <OB_MR> (10gs_ligand)
123.81

>  <OB_CHARGES> (10gs_ligand)
-0.1208074578 -0.2440506964 -0.2433666607 -0.2440506964 -0.2433666607 -0.2733303915 -0.2714327743 0.0402176737 0.0889012268 0.0889067432 0.0837988929 -0.1968520941 -0.189526692 -0.1331110633 -1.93493e-05 -1.83956e-05 -0.0002954781 -0.0002954781 -0.0002559722 -0.0002559722 -0.003410778 -0.003410778 -0.0020730259 -0.0020730259 0.1948209828 0.1834282653 0.2199899283 0.3818721033 0.38838745 0.2418437414 0.2628674384 -0.0113265976 0.0082955919

>  <MCT_HBD> (10gs_ligand)
5

>  <MCT_HBA> (10gs_ligand)
9

>  <ENSEMBLE_TOTAL> (10gs_ligand)
50

>  <ENSEMBLE_RMSD> (10gs_ligand)
1.583
1.711
1.835
1.865
1.935
1.944
1.957
1.967
2.036
2.083
2.097
2.106
2.153
2.154
2.156
2.213
2.249
2.287
2.351
2.396
2.417
2.420
2.475
2.492
2.498
2.502
2.537
2.579
2.618
2.730
2.734
2.776
2.806
2.830
2.851
2.901
2.925
3.018
3.053
3.173
3.181
3.188
3.278
3.333
3.457
3.557
3.558
3.620
3.640
3.653

>  <ENSEMBLE_COORDS> (10gs_ligand)
5.7979 2.6719 -3.6550 5.9738 1.3844 -0.5265 -2.4536 3.0955 0.2299 6.3410 3.5846 -0.9891 -2.3168 3.5293 2.4545 0.3959 2.3254 -3.2218 1.0218 1.9443 0.4125 3.6972 2.8919 -2.4474 2.7703 2.2920 -3.4858 1.0246 -1.1187 -0.6809 -1.3416 -2.4218 -1.0458 1.6579 0.8163 -1.9846 -1.0369 0.8774 0.3831 0.3384 -2.4334 -1.7147 -2.4438 -5.9098 1.1732 -3.9926 -1.3622 3.7880 -1.9985 -4.8269 1.8354 -2.5030 -5.9013 -0.2775 -4.3717 -0.9938 2.5513 -2.7743 -0.8230 4.3636 -1.5872 -3.6449 1.0991 -2.1152 -4.8099 -0.9604 -3.5611 -0.0587 1.7908 -2.0206 0.0381 3.6577 5.0407 2.1971 -2.5079 0.5783 0.2179 -1.2325 -1.5102 1.4037 1.6381 5.8479 2.5052 -1.2811 -2.1408 2.7726 1.5077 1.4724 1.8451 -2.8815 0.2503 1.1156 -0.0606 -1.6176 -3.6432 -0.2467 -2.4231 0.4392 2.3151
6.0150 3.4845 -3.0790 6.7469 0.7889 -2.4609 -3.7025 1.6595 -0.7388 5.3695 0.4436 -4.2391 -4.7865 2.3889 1.1159 1.3782 2.6868 -2.3369 0.2548 2.3129 1.4682 4.6210 2.3505 -1.4411 3.4110 3.2248 -1.1983 1.0745 -0.6217 0.3239 -0.7195 -2.0845 -1.1196 1.9748 1.4910 -0.4343 -1.4583 1.0967 0.4880 1.0717 -1.8791 -0.9760 -2.2830 -5.8415 0.2048 -3.2903 -1.0455 4.6299 -2.3293 -4.7831 1.0333 -1.6504 -5.7171 -1.0960 -2.8933 0.2177 4.8639 -3.4392 -1.5166 3.2655 -1.7637 -3.5127 0.6170 -1.1233 -4.5410 -1.4803 -2.6169 1.1080 3.7515 -3.1871 -0.6907 2.2344 5.0586 2.4083 -2.8855 0.7587 0.7247 -0.2926 -2.5088 1.6029 1.3361 5.7225 1.1230 -3.2844 -3.7884 1.9131 0.5888 2.1490 2.4426 -1.4146 -0.1417 1.4811 0.6575 -1.1660 -3.3960 -0.5831 -2.7579 0.6801 2.4818
5.8636 3.5440 -3.0701 6.8408 0.9570 -2.7991 -3.8045 0.9553 -0.6331 5.1118 0.4052 -4.1735 -4.7826 2.2388 0.9628 1.3837 2.8888 -2.0448 0.2797 2.0608 1.6244 4.6412 2.2532 -1.4086 3.5111 3.1666 -0.9915 1.1161 -0.7364 0.1802 -0.7707 -2.0018 -1.3043 2.0101 1.4420 -0.3381 -1.4311 0.9506 0.5205 1.0283 -1.8483 -1.2429 -2.4040 -5.7450 -0.0516 -3.0597 -0.7257 4.9558 -2.1450 -5.5468 -1.3564 -2.0463 -4.7302 0.9235 -2.7906 0.5909 5.0044 -3.1611 -1.3966 3.6729 -1.5511 -4.2976 -1.7945 -1.4796 -3.5791 0.5203 -2.6002 1.3371 3.7741 -2.9891 -0.7051 2.5324 4.9665 2.4185 -2.8731 0.7933 0.6659 -0.2888 -2.5121 1.4882 1.3115 5.6309 1.1712 -3.3724 -3.8173 1.6045 0.5550 2.1903 2.4910 -1.2109 -0.1146 1.3180 0.7301 -1.2141 -3.3569 -0.8934 -2.6938 0.7217 2.5790
5.9669 2.7436 -3.4219 5.6506 4.3960 -1.2041 -2.1310 2.9374 0.2815 5.7477 2.4332 -0.0577 -1.7983 3.3256 2.4942 0.5840 2.0835 -3.3100 1.4644 1.3335 0.4216 3.6470 2.8997 -2.6925 2.9517 1.9359 -3.6292 1.0729 -1.5166 -1.0142 -1.5248 -2.2943 -0.8963 1.8098 0.4721 -2.1629 -0.7587 0.6824 0.2932 -0.0547 -2.6247 -1.8918 -2.9745 -5.4728 1.5581 -4.0290 -1.3471 3.5591 -3.4864 -5.3120 0.3248 -1.8778 -4.6328 2.0049 -2.8968 -0.9936 4.1928 -4.2565 -0.9188 2.1912 -2.9711 -4.2694 -0.5429 -1.3881 -3.6770 1.1955 -1.9148 -0.1671 3.5145 -3.3483 -0.1501 1.5643 5.0365 2.4081 -2.3564 0.7281 -0.0939 -1.3941 -1.1631 1.1785 1.5858 5.5198 3.0511 -1.0892 -1.7257 2.5818 1.5241 1.6409 1.5291 -3.0299 0.5566 0.7194 -0.1300 -1.9522 -3.4918 -0.1330 -2.1250 0.2510 2.2505
4.8703 2.7216 -1.1371 6.6023 0.9134 -2.3857 -3.2397 1.8836 -0.2374 6.9178 2.6539 -3.8171 -3.7485 3.1140 1.6025 0.4200 0.8869 -3.0443 0.3604 2.3844 0.6802 3.8197 1.5089 -2.9847 2.4502 2.1523 -3.0353 1.6545 -0.5698 0.7672 0.0981 -2.7803 1.0726 1.7280 0.9284 -1.1243 -1.1863 0.6724 0.9060 1.6668 -2.3149 0.2973 -2.6452 -4.3934 -1.7941 -3.9930 -1.0731 4.7275 -1.8490 -5.2319 -1.1068 -2.5806 -2.9642 -1.5469 -3.2361 -0.0315 5.1151 -4.1165 -1.3933 3.3169 -0.9155 -4.7062 -0.1271 -1.7171 -2.4766 -0.6389 -2.5570 0.7786 4.1212 -3.4883 -0.6416 2.3951 4.8630 2.5239 -2.5770 0.8396 0.1998 -0.2502 -2.0657 1.3923 1.7889 6.2276 2.0645 -2.9964 -3.1086 2.2164 1.0687 1.4217 1.2398 -2.4303 0.0110 1.2232 0.4897 -0.8267 -3.3785 0.0756 -2.6770 0.4970 2.8089
5.5430 3.0423 -3.7205 5.2022 4.2323 -1.2341 -2.9747 1.7627 -0.2825 5.7173 2.1637 -0.4411 -2.9340 3.3057 1.3857 0.3846 0.9913 -3.2548 0.9509 1.9600 0.3471 3.3307 2.6016 -2.8229 2.7142 1.4371 -3.5691 1.7319 -1.1830 0.2298 0.1764 -3.3340 0.7920 1.9113 0.3375 -1.6275 -0.8291 0.5053 0.6677 1.4682 -2.8620 -0.3815 -3.5204 -4.3429 -1.1191 -3.5788 -0.9041 4.6551 -3.3585 -3.1043 -0.6205 -2.4450 -5.3130 -1.0175 -2.6348 -0.0074 4.9914 -3.8906 -1.1364 3.2572 -2.1052 -2.7381 0.0130 -1.2876 -4.9767 -0.4212 -1.9320 0.7289 3.9563 -3.2441 -0.4488 2.2996 4.8141 2.3678 -2.6604 0.9838 -0.2356 -0.6811 -1.5562 1.3355 1.5950 5.2980 2.8841 -1.3374 -2.5499 2.2449 0.9101 1.5273 0.9146 -2.8167 0.4022 0.8782 0.1610 -1.0995 -3.6284 0.0913 -2.2155 0.5214 2.6556
3.1777 3.9065 -3.2052 4.8436 4.7950 -1.1621 -2.0071 2.1819 -0.6638 6.4863 4.4756 -2.7035 -2.1729 3.5681 1.1280 1.4891 0.5528 -3.0671 1.4947 1.4785 0.7301 4.2019 2.0736 -1.9816 3.8489 0.8214 -2.7546 1.6424 -1.7523 0.5519 -0.7219 -3.0466 0.8794 2.4927 -0.2529 -1.1301 -0.5545 0.3929 0.6541 0.8352 -3.2632 -0.0164 -3.8125 -5.5781 -0.6567 -4.2187 -0.3427 4.0621 -3.7221 -4.3132 -1.1056 -2.8747 -6.0652 0.3387 -3.3076 0.5191 4.5471 -4.1827 -0.7223 2.6612 -2.6807 -3.4366 -0.6002 -1.9113 -5.2540 0.8092 -2.2904 1.0651 3.6683 -3.2485 -0.2041 1.8434 4.4349 3.2373 -2.9144 1.2976 -0.6464 -0.4204 -1.2592 1.3594 1.4543 5.3658 4.2279 -2.2779 -1.8680 2.4830 0.6490 2.4721 0.3755 -2.3558 0.7938 0.5347 0.3781 -1.7892 -3.8979 0.2965 -2.2545 0.7272 2.3640
3.9145 4.4364 -2.2467 7.0768 3.8510 -2.6244 -1.5951 3.2828 0.0500 6.1862 3.4916 -0.5580 -1.7200 3.6144 2.2919 1.0650 1.8634 -3.2798 1.3291 1.2798 0.4350 4.1438 2.0424 -2.0856 3.4082 1.3720 -3.2259 0.7168 -1.6610 -0.7733 -1.7265 -2.7642 -0.3142 1.8389 0.1021 -1.9722 -0.9185 0.7376 0.2464 -0.4873 -2.7007 -1.6299 -2.3062 -6.6219 1.4526 -4.6943 -0.4679 3.3951 -1.4656 -5.7516 2.0402 -2.9773 -6.2609 0.2167 -3.5355 -0.3231 4.0614 -4.7920 -0.0410 2.0110 -1.2343 -4.4492 1.4408 -2.7562 -5.0587 -0.3439 -2.3881 0.2663 3.3963 -3.7295 0.5085 1.3956 4.7992 3.3222 -2.5483 0.6029 -0.2475 -1.3036 -1.3243 1.3759 1.4723 6.0637 3.5521 -1.7728 -1.5822 2.8607 1.3368 1.9719 1.1663 -2.8375 0.4155 0.6739 -0.1174 -1.8291 -4.1240 0.2777 -2.4707 0.6722 2.1139
5.4051 1.4873 -1.8031 5.9281 1.2686 -4.5295 -0.7562 -0.3358 3.5214 6.6272 3.4214 -4.3033 -1.9391 1.2902 4.5765 0.3980 2.4709 -2.5167 0.7385 2.0930 1.3936 3.6009 2.3861 -3.1716 2.6793 3.1349 -2.2351 1.3551 -0.8062 0.0380 -0.7350 -2.5072 -0.3138 1.7432 1.3415 -0.9934 -1.0957 0.7048 1.1019 0.8504 -2.1240 -1.0932 -1.2853 -6.5658 0.9216 -6.1161 1.0492 1.4464 -1.7067 -6.1914 -0.2996 -0.5962 -5.6137 1.7740 -5.4512 -0.0910 1.7047 -5.3945 2.3054 1.3616 -1.4946 -4.8286 -0.7543 -0.3876 -4.3549 1.3487 -4.0155 -0.0622 1.9193 -4.0649 2.3330 1.5588 5.0363 2.5443 -2.7296 0.7238 0.4901 -0.4236 -1.8924 1.2755 2.1591 5.9517 2.4774 -3.9158 -1.5501 0.7612 3.5425 1.4744 2.2864 -1.9592 0.1540 1.2031 0.7826 -0.8417 -3.9484 0.0275 -3.3429 1.1050 1.8635
5.8960 2.2559 -2.8602 5.4223 4.2744 -1.0448 -2.2058 2.9985 -0.2127 4.6634 2.6193 0.3209 -2.2357 3.8000 1.9100 0.4775 1.7365 -3.4623 1.2905 1.8391 0.3163 3.5284 2.8370 -2.8225 2.8617 1.7917 -3.6930 1.2761 -1.2751 -0.4805 -1.0544 -2.6540 -0.6100 1.8091 0.4973 -2.0145 -0.8048 0.8457 0.3959 0.5868 -2.6885 -1.3649 -2.5572 -6.4836 0.5490 -3.9669 -0.5890 4.0620 -2.0312 -5.6772 1.4886 -2.5581 -6.0751 -0.8440 -2.8549 -0.0343 4.5761 -4.2319 -0.4968 2.6379 -1.4816 -4.3871 1.1121 -2.0459 -4.8829 -1.1943 -1.9333 0.6755 3.7075 -3.3782 0.1617 1.8338 4.6877 2.2458 -2.0533 0.7732 -0.0185 -1.1538 -1.2963 1.6088 1.5138 4.9254 3.0363 -0.8000 -1.9679 2.9056 1.1173 1.5724 1.3592 -3.0604 0.4848 1.0015 -0.0768 -1.4704 -4.0120 -0.1805 -2.1808 0.7844 2.3870
6.0861 2.7656 -3.6609 4.6531 0.3556 -3.8365 -0.9939 -0.4676 3.5005 3.1700 1.6628 -4.9637 -2.3812 1.0102 4.5222 1.0661 2.5793 -2.1461 0.6780 2.2935 1.7465 4.4315 2.5215 -1.9089 3.2340 3.3346 -1.4692 1.6554 -0.6110 0.6227 -0.2405 -2.3508 -0.2518 2.1415 1.5322 -0.3719 -1.0057 0.8108 1.1700 1.4951 -1.9589 -0.5719 -1.0638 -6.3911 0.8808 -5.9531 1.0209 0.6222 -1.0570 -6.0672 -0.4246 -0.7312 -5.3902 1.8785 -5.4609 2.2055 1.0256 -5.1282 -0.1705 0.7040 -0.7468 -4.7091 -0.8328 -0.4273 -4.1357 1.5007 -4.1082 2.2903 1.5435 -3.8769 -0.0948 1.1909 4.6625 2.6928 -3.3889 1.0695 0.6447 0.0127 -1.9505 1.2697 2.1566 4.0828 1.5426 -4.1572 -1.8237 0.6026 3.5105 2.0246 2.4492 -1.3922 0.2583 1.3592 1.0702 -0.4200 -3.7842 0.0889 -3.3398 1.1874 1.6295
6.5574 2.1000 -2.6913 3.6786 1.3913 -4.2984 -3.7985 1.5667 -0.4878 4.8082 -0.1814 -3.0950 -4.6530 2.7817 1.2288 1.4542 2.7685 -2.0387 0.2913 2.3182 1.6771 4.6778 2.1442 -1.1862 3.5494 3.1207 -0.9374 1.0356 -0.6322 0.5137 -0.2747 -2.1026 -1.3671 2.0041 1.4729 -0.1893 -1.4539 1.1670 0.6800 1.4179 -1.8155 -0.8019 -1.7556 -6.0834 -0.8677 -3.3170 -0.5631 5.0168 -1.1446 -5.7544 -2.0201 -1.8513 -5.1116 0.2066 -2.8117 0.6776 5.1344 -3.5534 -1.1272 3.7001 -0.6042 -4.4186 -2.1983 -1.3384 -3.8787 0.0480 -2.5168 1.4541 3.9449 -3.2758 -0.4096 2.5968 5.1085 2.1871 -2.6325 0.7659 0.7313 -0.0914 -2.4826 1.7565 1.5001 4.5544 0.9878 -3.3437 -3.7584 2.0884 0.7607 2.2251 2.4424 -1.1421 -0.1243 1.5036 0.8573 -0.6722 -3.5229 -1.1958 -2.7422 0.9410 2.7196
6.0605 2.1383 -3.7428 4.3557 -0.1275 -3.8533 -1.2139 0.7063 4.1383 3.2586 1.2091 -5.3324 -2.7829 2.3496 4.1158 1.0423 1.2961 -2.2301 0.3433 2.6848 1.3918 4.2310 2.1813 -2.1701 2.8733 2.8140 -1.9606 2.0310 -0.0711 1.7083 0.5510 -2.3537 1.8542 2.1447 1.4243 -0.1848 -0.9288 0.7489 1.4903 2.2078 -1.8339 1.3419 -1.6034 -4.3094 -1.2890 -5.5607 -0.9182 0.7898 -0.9772 -5.0545 -0.3607 -1.5377 -2.8609 -1.2230 -5.4522 0.3772 0.4457 -4.5223 -1.5453 1.5860 -0.2366 -4.4102 0.7089 -0.8475 -2.2639 -0.2360 -4.2919 1.1431 0.8615 -3.4536 -0.8329 1.9832 4.6156 2.2260 -3.6276 1.2577 0.5883 0.5861 -2.1259 1.3478 2.0205 4.0122 1.0743 -4.3776 -2.0933 1.5312 3.5211 1.9132 1.7577 -1.5011 0.2007 1.4829 1.1912 -0.1475 -3.0682 0.7544 -3.3231 0.5682 1.5998
5.5694 2.1931 -3.9319 5.0870 -0.3792 -2.8719 -1.1217 1.0389 4.1925 3.6840 -0.4978 -4.6595 -2.9593 2.3686 4.2991 0.6389 0.6680 -2.3639 -0.2344 2.7854 1.0245 3.6920 2.0930 -2.4125 2.2272 2.4510 -2.5260 1.7846 0.2859 1.6640 1.4299 -2.4397 1.5578 1.6194 1.5136 -0.4319 -1.2389 0.7668 1.5563 2.7127 -1.2044 1.2153 -0.8575 -3.1711 -1.9927 -5.8367 -1.1622 1.5491 -1.4335 -2.5385 -0.9550 0.5024 -3.6665 -1.8765 -5.8384 0.1084 1.1087 -4.6709 -1.6912 2.2331 -0.6809 -2.3201 0.2661 1.1964 -3.4714 -0.7413 -4.6747 0.9490 1.3183 -3.5949 -0.9105 2.4345 4.2314 1.6588 -3.7514 0.8928 0.7014 0.5117 -2.4016 1.3317 2.1897 4.3001 0.1626 -3.8336 -2.2144 1.6365 3.6600 1.4091 1.4313 -1.7910 -0.2299 1.5583 1.0464 0.6019 -2.7176 0.3530 -3.5917 0.4680 1.9588
6.1649 2.2121 -3.6432 3.9405 0.4763 -3.9420 -1.0520 -0.5155 3.4695 3.1028 2.3022 -5.0113 -2.3580 1.0232 4.5100 1.1812 2.5537 -2.0889 0.7490 2.2406 1.8130 4.5265 2.3826 -1.8738 3.3706 3.2381 -1.4024 1.6772 -0.6661 0.6613 -0.2433 -2.3656 -0.2452 2.2149 1.4808 -0.3036 -0.9648 0.8182 1.1747 1.5010 -1.9993 -0.5484 -1.1234 -6.4005 0.8706 -5.8981 1.0858 0.5514 -1.1029 -6.0739 -0.4341 -0.7974 -5.4028 1.8738 -5.3966 2.2655 0.9576 -5.0940 -0.1184 0.6545 -0.7757 -4.7178 -0.8368 -0.4787 -4.1505 1.5010 -4.0508 2.3332 1.4958 -3.8498 -0.0579 1.1607 4.8021 2.6110 -3.3395 1.1248 0.6086 0.0599 -1.9183 1.2845 2.1481 3.8721 1.8054 -4.1994 -1.8216 0.5987 3.4940 2.1306 2.3958 -1.3291 0.3163 1.3298 1.1135 -0.4495 -3.7973 0.0898 -3.2999 1.2197 1.5986
5.9507 1.9898 -3.6080 2.9552 0.7046 -4.4325 -2.7870 2.6065 0.0240 4.5252 -0.5394 -3.3442 -3.7818 3.4430 1.8856 1.1766 1.9236 -1.9432 0.4891 2.5288 1.9362 4.4611 1.9862 -1.7132 3.2906 2.8607 -1.3217 1.6481 -0.4284 1.6229 1.3918 -2.5514 -0.0712 2.1277 1.3722 0.1073 -1.1668 1.0131 1.3502 0.7590 -1.9999 1.5328 -1.5689 -4.6712 -2.3263 -4.9108 -1.1807 3.9414 -0.6749 -5.3676 -1.6018 -1.5237 -3.2200 -2.3357 -4.2344 -0.3074 4.7083 -4.6830 -1.2136 2.5082 0.3323 -4.6674 -0.8252 -0.5895 -2.5700 -1.6192 -3.2934 0.6134 4.0982 -3.8093 -0.3614 1.9426 4.5563 1.8889 -3.2165 1.0569 0.5608 0.6403 -2.2111 1.6242 2.1299 4.0559 0.5450 -3.6551 -3.0189 2.6435 1.3579 2.0775 2.0017 -1.1154 0.1292 1.4926 1.3862 0.3579 -3.3216 -0.8095 -3.0874 0.6012 2.7666
3.1301 3.4493 -3.0291 6.3922 2.6431 -3.1301 -2.3906 2.7223 -0.1895 5.4685 3.6972 -1.3336 -2.4841 4.2359 1.4999 0.4273 0.4383 -2.4727 0.9002 1.6965 1.0777 3.5518 1.4123 -1.8082 2.8167 0.2743 -2.4838 0.8021 -1.5113 1.3801 0.8723 -3.7604 -0.1608 1.5388 -0.3652 -0.5942 -1.2476 0.8473 1.2928 -0.1393 -3.0371 1.1578 -1.5433 -5.8524 -3.0141 -4.6827 0.8916 4.9781 -1.2579 -4.5553 -3.2274 -1.0211 -6.5275 -1.8398 -4.9301 0.5647 3.6971 -3.4693 1.6097 5.3209 -0.4356 -3.8272 -2.2772 -0.2598 -5.8547 -0.9589 -3.9775 0.9178 2.6588 -2.5849 1.9332 4.3612 4.0900 2.3743 -2.8383 0.4071 -0.5421 0.2873 -1.7835 1.9805 2.0048 5.3572 2.9914 -2.3249 -2.2645 3.0975 1.1055 1.4531 0.1404 -1.8714 0.0852 0.7914 0.9261 0.0165 -4.4411 -1.1675 -2.8374 1.5651 2.9732
5.4188 2.6223 -3.3895 4.7263 4.7761 -1.8170 0.3728 0.1217 3.1163 4.3121 3.2234 -0.2067 -0.6823 1.9461 3.9588 0.1788 1.0715 -3.4492 1.1608 1.9604 0.0654 2.9900 2.8464 -3.2679 2.4614 1.6002 -3.9484 1.8713 -1.2097 -0.1934 0.0181 -2.9167 0.8076 1.8651 0.3437 -2.0263 -0.5397 0.4890 0.6396 1.2344 -2.8647 -0.5307 -2.8578 -6.0413 0.2695 -5.3898 0.8716 1.9407 -3.0662 -4.8547 -0.3287 -1.6764 -6.2436 1.0880 -4.6171 -0.1617 2.3195 -4.7783 2.0734 1.4047 -2.1077 -3.7775 -0.1582 -0.7821 -5.2506 1.2388 -3.1720 -0.0655 2.2175 -3.4402 2.1631 1.3065 4.2647 2.5458 -2.5111 1.0417 -0.2245 -0.9869 -1.1298 1.3061 1.6699 4.4401 3.5231 -1.3867 -0.4780 1.1715 3.0321 1.3594 0.9942 -3.1288 0.5904 0.8807 -0.0554 -0.9914 -3.9777 0.5670 -2.5972 1.0577 1.7431
5.7100 1.4813 -3.6950 4.9311 -0.6126 -1.9682 -3.3704 1.8375 -0.0266 3.2797 -0.8471 -3.5152 -4.2009 2.8900 1.8070 0.8506 1.2576 -2.3412 0.0193 2.6888 1.4566 4.0786 2.1379 -2.0317 2.6977 2.7541 -2.0799 1.6503 -0.1029 1.5487 0.9792 -2.6743 0.8291 1.7817 1.5619 -0.2329 -1.3204 0.8047 1.2916 2.4252 -1.5803 0.8413 -0.9665 -2.4221 -2.9784 -4.4547 -1.7596 4.2895 -1.5679 -1.9025 -1.8933 0.2946 -3.1280 -2.8424 -3.9470 -0.6967 4.9385 -4.2660 -1.8913 2.8568 -0.9385 -2.0207 -0.5921 0.8767 -3.2414 -1.6350 -3.2230 0.3231 4.2022 -3.5971 -0.9456 2.1735 4.3379 1.2968 -3.2584 0.9042 0.6593 0.4735 -2.4018 1.3081 2.0977 4.1226 -0.1577 -2.9564 -3.4206 2.0920 1.3029 1.6743 1.7708 -1.5905 -0.1487 1.5170 1.1317 0.2641 -2.6133 -0.4729 -3.0544 0.2152 2.8695
4.2612 3.2390 -3.3917 5.0179 0.2730 -2.1644 -0.2956 2.0947 3.7620 4.0497 1.8336 -0.8135 -1.7650 3.8207 3.6254 -0.6244 0.3363 -2.5418 0.3955 2.3429 0.2573 2.2154 2.0027 -3.1770 1.5735 0.6573 -3.4385 1.5985 -0.5126 1.1340 2.0752 -2.9333 -0.0105 1.2279 0.1341 -1.1514 -1.0615 0.9990 1.4673 1.3446 -2.2628 1.5057 -0.6117 -5.5477 -2.0869 -5.8818 0.6441 2.7388 0.4012 -6.0732 -1.3753 -0.7808 -4.1075 -2.1547 -5.6776 1.6326 1.8499 -4.7546 0.0425 3.4273 1.3141 -5.2010 -0.6589 0.0705 -3.2990 -1.4996 -4.3296 2.1009 1.5863 -3.5057 0.4779 3.1847 3.7218 1.9004 -3.2253 0.5668 -0.0721 0.1166 -1.8959 2.0563 1.9788 4.2602 1.3731 -1.9254 -1.3360 2.7551 3.2001 0.5855 0.3661 -2.3465 -0.0208 1.2377 0.5895 1.1396 -3.8666 -0.6906 -3.2780 1.5557 2.2280
3.7459 3.0205 -4.7844 5.2376 0.0955 -3.8852 -1.6613 -1.4943 3.5286 6.2488 2.1321 -3.7368 -2.8415 -0.0213 4.7861 0.3964 1.1997 -2.3877 0.1655 2.2707 1.6179 3.5383 2.5099 -2.4157 2.0831 2.8869 -2.2420 1.9632 -0.3899 1.1612 1.4469 -3.0557 1.2917 1.6452 1.3960 -0.4385 -1.0215 0.2818 1.6572 2.4134 -1.9054 0.2840 -1.7114 -4.8735 -0.9549 -5.5489 2.0982 0.7324 -0.5165 -5.4881 -0.8927 -1.9206 -3.6193 -0.2544 -4.8396 2.9323 1.5130 -5.1172 0.7229 0.5651 0.5678 -4.8913 -0.1343 -0.9170 -3.0655 0.4482 -3.6378 2.4600 2.1748 -4.0093 0.2802 1.1855 3.8256 1.9575 -3.7945 0.9597 0.3793 0.3277 -1.9701 0.7116 2.6539 5.2377 1.4494 -3.8072 -2.2252 -0.2864 3.7613 1.2862 1.7246 -1.7264 0.0192 1.1038 1.2650 0.3877 -3.7078 0.4808 -3.2301 1.1855 2.0202
4.5226 2.7673 -4.4013 4.0132 4.6709 -2.4300 -0.9378 -0.8813 3.6928 4.9338 3.1077 -1.0572 -1.7068 1.0548 4.5934 -0.0841 0.1531 -2.7573 0.9577 1.8061 0.5002 2.4282 2.3391 -3.2363 2.0048 0.9369 -3.6177 2.2465 -1.1612 0.6292 0.9865 -3.4175 1.5178 1.8158 0.0606 -1.4182 -0.4507 0.1603 1.3314 2.2251 -2.9364 0.2869 -2.6858 -4.6579 -0.3148 -5.0116 1.8371 0.4378 -2.6279 -3.4633 0.3002 -1.5181 -5.5204 -0.3358 -4.1812 2.8472 0.7515 -4.6339 0.4681 0.7364 -1.3918 -3.0310 0.9254 -0.3756 -5.1231 0.2518 -2.9011 2.5660 1.3739 -3.4544 0.2081 1.3271 3.9343 2.3983 -3.1254 1.2001 -0.4923 -0.2356 -1.2009 0.9990 2.2308 4.3561 3.4029 -2.0951 -1.3212 0.4158 3.6222 1.1098 0.3564 -2.5642 0.5851 0.6388 0.5555 -0.2946 -3.8083 0.8711 -2.5423 1.2982 1.6536
4.1821 2.7193 -1.8424 5.2744 2.8302 -5.0229 -1.4140 -0.5439 4.2604 5.9945 1.2528 -3.5433 -2.4393 1.3561 4.9646 -0.0265 -0.1755 -2.3869 0.0673 2.2275 0.8452 2.9784 1.1488 -3.2554 1.5341 1.5293 -3.0070 1.9821 -0.3493 1.3578 1.1155 -2.9314 1.6744 1.4711 0.6324 -0.8029 -0.9589 0.3854 1.8069 2.5664 -2.0349 1.0586 -1.2000 -4.5212 -1.5620 -5.6502 1.5165 0.6584 -0.0522 -5.1351 -1.2232 -1.6580 -3.3693 -0.8062 -4.9588 2.6196 0.9953 -5.1277 0.2033 0.9897 0.7388 -4.6325 -0.1145 -0.9237 -2.9012 0.2181 -3.6845 2.4939 1.6765 -3.9528 0.0863 1.6334 3.8625 2.3756 -3.2188 0.8958 0.0034 0.3628 -1.8583 1.1491 2.6311 5.1588 2.0671 -3.9074 -1.9535 0.6822 4.0645 0.9042 0.5520 -2.0566 -0.0192 1.0144 1.0121 0.3451 -3.5301 0.5513 -3.1936 1.2789 1.9882
5.6358 3.5586 -1.9242 5.5490 3.3040 -5.2166 -2.4031 -1.7068 2.6358 6.2151 1.5252 -3.9567 -3.0754 -0.3070 4.2903 0.3754 2.2843 -2.1019 0.6818 1.4879 1.7179 3.7003 2.2321 -2.5489 2.6447 2.9248 -1.7160 1.3251 -1.2536 0.1168 -0.7517 -2.9227 -0.4091 1.7129 0.9767 -0.7216 -1.1705 0.1793 1.2406 0.8559 -2.4925 -1.1137 -1.1633 -6.9280 1.0301 -4.8367 3.5113 1.0218 -1.5420 -6.6418 -0.2285 -0.5547 -5.9010 1.8565 -3.9398 3.8500 1.9648 -4.8464 2.1639 0.4818 -1.3775 -5.2958 -0.7462 -0.3886 -4.6570 1.3728 -2.9745 2.8719 2.4308 -3.9589 1.2539 0.9207 4.7440 3.2182 -3.0220 0.6891 0.0712 -0.2490 -1.9522 0.6290 2.3650 5.5864 2.5662 -4.0789 -2.5505 -0.4838 3.1976 1.4490 2.0339 -1.5645 0.0999 0.6726 1.0081 -0.8022 -4.3449 0.0130 -2.9766 1.6199 1.9333
5.6446 1.8046 -2.4107 4.7132 4.4225 -2.1860 -2.7727 1.0095 -0.5969 3.9439 3.6948 -0.1719 -3.2047 2.9058 0.5741 0.6175 0.1145 -3.0710 1.1780 1.7370 0.3868 3.2944 2.0290 -3.0563 2.9421 0.5955 -3.3921 1.8634 -1.4062 0.7639 -0.1985 -3.1763 1.0408 2.1191 -0.2051 -1.3217 -0.6550 0.3856 0.8386 1.5195 -3.1573 0.4641 -2.9131 -3.9624 -2.1808 -3.4400 -0.0292 4.9811 -2.4082 -4.9967 -1.4844 -2.5574 -2.6023 -1.8202 -2.7444 1.1214 5.0060 -3.5136 -0.8046 3.7566 -1.4935 -4.7540 -0.3831 -1.7130 -2.3781 -0.7987 -2.0770 1.5918 3.8059 -2.8986 -0.3676 2.6438 4.3043 2.0952 -1.9311 1.1732 -0.5879 -0.3049 -1.5162 1.3916 1.4074 4.3034 3.4641 -1.3187 -2.5803 1.8610 0.4387 1.7478 0.1573 -2.5982 0.6001 0.6572 0.3327 -1.1281 -3.4958 -0.0747 -2.1501 0.8851 2.6610
4.6411 2.2522 -3.8005 3.5506 -0.9534 -4.1510 -2.9895 2.9425 0.4698 5.6660 -0.4123 -3.5034 -3.7600 3.8975 2.3792 0.6018 1.7316 -1.7205 0.2357 2.3310 2.1987 3.8690 1.2733 -1.7262 2.8741 2.3057 -1.2439 0.9126 -0.7678 1.7455 1.7555 -2.5039 -0.1682 1.5917 0.9994 0.2547 -1.6390 1.0461 1.7288 0.3996 -2.3403 1.0207 0.4248 -4.2726 -3.8331 -5.4971 -0.5649 4.5560 0.3844 -2.9343 -3.7032 0.9272 -5.0936 -2.7463 -5.4522 -0.6128 3.2125 -4.5621 0.2734 5.2827 0.8347 -2.3110 -2.4716 1.3469 -4.5179 -1.6059 -4.4670 0.1716 2.4888 -3.6448 0.9943 4.6144 3.8465 1.1747 -3.2332 0.4437 0.3417 0.8311 -2.5517 1.8135 2.5355 4.4868 -0.1196 -3.6339 -3.1761 2.9838 1.8102 1.5609 1.6420 -0.9622 -0.2946 1.3614 1.6652 1.2669 -3.0735 -1.4498 -3.5863 0.9420 3.1588
6.0461 2.2415 -1.9380 4.9258 4.4812 -0.6983 -3.4867 1.4550 -0.7617 4.0433 2.9206 0.7022 -3.9715 2.6359 1.1117 0.9680 1.3426 -3.8054 1.0314 1.7641 0.1900 3.7592 2.6775 -2.6845 3.3408 1.4657 -3.4908 0.9867 -1.4005 -0.5708 -1.3505 -2.6512 -1.2182 1.9383 0.3447 -1.9432 -1.0652 0.7978 -0.0335 0.4167 -2.7860 -1.5832 -2.9921 -6.0758 0.7574 -1.6671 0.1013 4.8831 -2.6232 -5.0097 1.4903 -2.7901 -6.0739 -0.6804 -1.1464 1.3152 4.6300 -2.2456 -0.6771 3.8034 -2.0454 -3.8473 0.8403 -2.2502 -4.9996 -1.2830 -1.1683 1.8467 3.2792 -2.2677 -0.1845 2.5524 4.6518 2.2713 -1.5324 0.7207 -0.1110 -1.3166 -1.7560 1.6774 0.8808 4.5088 3.2294 -0.3867 -3.1837 1.9649 0.4563 1.9442 1.0647 -3.1176 0.2818 0.9339 -0.3145 -1.8444 -3.8481 -0.4905 -1.7095 1.1332 2.2720
5.5166 -0.2396 -2.1281 5.3932 1.3538 -4.4088 -3.2853 3.0463 0.3598 5.5200 3.0823 -2.9343 -3.2178 4.4083 2.1777 0.0311 1.2613 -2.2723 0.3126 2.1739 1.6443 3.2716 0.6174 -2.5144 2.3629 1.7265 -2.0312 0.4562 -1.0049 1.3310 1.3113 -2.9600 -0.3475 1.1584 0.5626 -0.3605 -1.7811 1.1809 1.5408 -0.1436 -2.5696 0.6572 0.4539 -5.8350 -3.4025 -5.3780 0.4848 5.0342 0.2503 -4.5305 -3.6598 0.9638 -6.2489 -2.1076 -4.3330 1.1658 5.5366 -5.4841 0.2747 3.6016 0.5370 -3.5366 -2.6408 1.2212 -5.3303 -1.1598 -3.3191 1.6954 4.6444 -4.5440 0.7657 2.7743 4.7005 0.9598 -2.1670 0.0205 0.1123 0.4079 -2.4244 2.1417 2.3978 5.2664 1.9101 -3.1797 -3.0161 3.3179 1.6587 1.0501 1.1521 -1.5997 -0.4301 1.2748 1.2606 0.9705 -3.9222 -1.4260 -3.4115 1.5091 3.3131
5.2088 2.0045 -3.0292 3.1065 -0.2081 -4.5502 -2.2406 3.9243 1.3547 5.1618 -0.7699 -3.7437 -2.8707 4.1848 3.5196 0.9640 2.4550 -1.2764 0.2642 1.4254 2.5124 3.8304 0.7599 -1.4789 3.1952 1.8586 -0.6556 -0.1317 -1.1857 0.6956 0.3560 -2.0438 -1.8525 1.3237 0.6493 0.1460 -1.8539 1.3110 1.5745 -0.9994 -2.0211 -0.6530 2.6459 -5.6527 -2.0828 -6.4042 0.2868 3.5056 1.3863 -5.6536 -2.5548 3.1889 -4.4558 -1.4661 -6.1817 0.8040 2.2839 -5.3459 0.2927 4.4980 0.5811 -4.4485 -2.4721 2.4322 -3.3488 -1.3596 -4.8844 1.3698 1.9583 -4.1417 0.8088 4.1952 4.0041 1.1982 -2.9141 -0.0547 0.2948 0.3913 -2.5354 1.9471 2.6735 4.1947 -0.0235 -3.7616 -2.5842 3.4563 2.5779 1.7051 1.6972 -0.6604 -0.4944 1.0626 1.6179 1.0676 -3.3487 -1.8658 -3.8937 1.3694 2.8728
4.9214 2.5447 -3.8456 4.9947 -0.8007 -3.2448 -4.1498 -0.3835 0.1787 6.5320 0.6624 -2.4146 -5.3384 1.3565 1.0232 0.6375 1.1711 -2.4152 -0.4607 2.3968 1.2226 3.8593 1.9420 -1.7598 2.4908 2.5779 -1.8679 1.0449 -0.4713 1.4824 0.3577 -2.9485 0.5451 1.4443 1.2001 -0.2356 -1.8221 0.5290 1.0571 1.8468 -1.9595 0.8393 -0.4080 -3.4805 -3.6356 -3.2880 0.7573 5.8618 0.5935 -4.1746 -3.0663 -1.2275 -2.5936 -2.8293 -3.1530 1.9777 5.3132 -3.3089 -0.4188 5.0114 0.8630 -4.0248 -1.6482 -0.9718 -2.4462 -1.5173 -3.0418 2.1160 3.8722 -3.2016 -0.2916 3.6769 4.3354 1.4397 -3.1031 0.4461 0.3294 0.3435 -2.9991 1.1675 1.5926 5.4238 0.4321 -2.8760 -4.2851 0.7396 0.9227 1.4278 1.5648 -1.5639 -0.6331 1.2207 0.9153 0.1401 -3.1611 -0.9102 -3.0704 1.0294 3.0755
5.7627 1.2410 -2.2931 3.3933 -0.0455 -4.3688 -4.1115 3.5030 0.4693 4.9829 -1.3141 -3.3425 -4.0942 4.2950 2.5991 1.4754 2.8329 -1.0786 -0.1969 1.2497 2.1527 3.8353 0.3891 -1.1137 3.3402 1.5592 -0.2917 -0.7650 -0.7393 -0.2958 0.7032 -1.5658 -2.4612 1.1196 0.7488 -0.1120 -2.1101 1.7796 0.9570 -1.0171 -1.1964 -2.0294 2.2416 -5.2450 -0.8985 -4.8887 -0.7449 4.2855 2.4797 -4.0994 -0.2354 1.4341 -5.2311 -2.1048 -3.9693 0.0190 4.9010 -5.1857 -0.5313 2.8814 1.9504 -2.8470 -0.7425 0.9310 -4.0726 -2.5676 -3.2692 1.0487 4.1568 -4.5421 0.4269 2.1914 4.3681 0.8587 -2.4467 -0.3222 0.7064 -0.2054 -2.8236 2.3120 2.0897 4.3191 -0.2901 -3.4085 -3.7342 3.4703 1.7684 1.8848 1.7982 -0.5638 -0.8339 1.2665 1.1027 1.1801 -2.8331 -1.8469 -3.5378 1.2508 2.8519
4.2889 3.4192 -3.2148 3.8176 2.1832 -0.7024 -0.5618 1.0191 3.9523 4.7713 0.4326 -1.7998 -1.4558 3.0315 4.4998 -0.8010 0.7615 -2.6690 0.6772 2.2881 0.5893 2.1392 2.3189 -3.0530 1.4406 1.0405 -3.4630 1.0894 -0.8673 0.8593 1.0733 -3.0646 -0.7281 0.9871 0.2791 -1.2624 -1.1956 1.1747 1.3949 0.4008 -2.5377 0.8659 0.8426 -7.2752 -1.4435 -5.9840 2.4182 2.0680 2.0163 -6.7366 -1.0671 -0.3322 -6.4330 -1.5808 -5.2513 3.4674 1.6548 -5.3230 1.2139 2.5367 2.1070 -5.3138 -0.7929 -0.2489 -5.1148 -1.3289 -3.8026 3.4008 1.6924 -3.9801 1.1508 2.5722 3.6374 2.1291 -3.0746 0.2463 -0.0078 -0.0578 -1.6946 2.2390 2.2270 4.1448 1.4840 -1.8164 -1.2432 2.1551 3.6708 0.4013 0.6946 -2.4375 -0.0371 1.2933 0.6531 1.0118 -4.5377 -0.8881 -3.1819 2.2941 2.1435
5.0842 2.7582 -3.2896 5.0913 3.9265 -0.7854 -1.7412 -1.6131 2.3442 4.5523 1.8470 -0.0368 -1.5935 -0.2229 4.1317 -0.3625 2.2972 -2.8111 1.2202 1.2664 0.4192 2.8057 3.2438 -2.5510 1.9020 2.5519 -3.5502 1.0669 -1.4874 -1.2227 -1.1047 -2.9820 -0.5708 1.2168 0.6766 -2.2728 -0.8147 0.1680 0.6207 0.0049 -2.7416 -1.9758 -0.9054 -6.7993 1.3484 -4.1725 3.6901 1.5375 -1.8176 -6.5993 0.3803 0.0317 -5.7448 1.6916 -2.9865 3.9970 2.0920 -4.4402 2.3312 1.1034 -1.8784 -5.3214 -0.3057 -0.0144 -4.5655 1.0467 -1.9688 2.9733 2.2380 -3.5018 1.3792 1.2487 4.0574 2.4275 -2.3169 0.4117 -0.1336 -1.3896 -1.1462 0.6696 1.9303 4.5937 2.6746 -0.9376 -1.5193 -0.4098 2.9235 0.7810 1.8556 -2.8366 0.3505 0.5272 -0.0301 -0.9948 -4.3509 -0.0073 -2.2079 1.7107 1.8342
3.3995 3.0252 -3.0333 5.1345 3.4200 -0.8467 -3.9327 1.8856 -0.1666 6.5937 2.3484 -2.2256 -4.0778 3.6593 1.2405 0.5425 0.1938 -2.5706 0.5212 1.5599 1.0437 3.4803 1.1530 -1.4856 2.8788 -0.0755 -2.1300 0.0405 -1.6001 1.3279 0.3804 -3.9044 -0.0771 1.2412 -0.5746 -0.4892 -1.7055 0.9397 0.8579 -0.8959 -3.0906 0.9178 -1.1288 -5.2359 -3.8584 -2.5427 1.5906 5.7639 -0.9820 -6.1266 -2.8612 -0.7652 -3.8459 -3.6502 -3.2626 0.7771 4.9708 -1.6978 2.6137 5.1764 -0.4790 -5.6937 -1.5694 -0.2928 -3.4459 -2.4568 -3.1952 0.9215 3.5270 -1.6332 2.7470 3.8403 4.2395 1.9654 -2.5034 -0.0461 -0.6283 0.1696 -2.2409 2.1090 1.5126 5.4471 2.5879 -1.8704 -3.5118 2.6344 0.8804 1.4219 -0.1263 -1.7789 -0.3420 0.7448 0.7316 -0.1775 -4.3984 -1.3625 -2.4116 1.8696 2.9753
2.8348 4.4013 -2.7088 6.1427 4.0016 -3.1133 -2.1288 -1.1093 3.0174 5.2232 4.3879 -1.0647 -2.2282 0.7241 4.3524 0.4231 1.1839 -2.8550 1.2090 1.1420 0.8703 3.4968 2.1566 -2.1244 2.8087 1.1896 -3.0638 1.0998 -1.9871 0.0086 -1.0306 -3.5855 -0.5631 1.7056 -0.1558 -1.4502 -0.8747 0.1398 1.0280 0.6885 -3.3740 -1.0787 -1.9466 -7.3130 1.3299 -3.7663 4.1573 0.6241 -2.0848 -7.2077 -0.0039 -1.4491 -6.1867 2.0990 -2.6469 4.4332 1.3159 -4.1679 2.7783 0.4138 -1.7505 -5.9621 -0.6718 -1.1263 -5.0374 1.4798 -1.8325 3.3508 1.8344 -3.4212 1.7741 0.9066 3.8946 3.4165 -2.8553 0.6435 -0.6858 -0.6213 -1.3288 0.9596 2.1224 5.1251 3.9906 -2.2161 -1.9516 0.2076 3.2766 1.5036 0.7618 -2.4580 0.3920 0.3052 0.4962 -1.2613 -4.9258 0.0350 -2.1951 2.0685 1.6381
2.9446 4.5580 -2.3043 6.2678 4.2180 -2.6285 -2.1329 -1.5941 2.3936 5.2549 4.2547 -0.5874 -2.1283 0.0027 4.0047 0.5307 1.4354 -3.1151 1.3272 0.8064 0.5962 3.5840 2.2406 -2.0971 2.9241 1.4596 -3.2132 1.0595 -2.1386 -0.7374 -1.3966 -3.2405 -0.3153 1.7441 -0.1472 -1.9174 -0.8042 -0.1063 0.6180 -0.0521 -3.3329 -1.5196 -2.1732 -6.7947 1.9395 -3.4810 4.0599 0.8812 -2.8740 -6.5675 0.8140 -1.1435 -5.8589 2.3536 -2.3518 4.1615 1.6041 -3.9538 2.7559 0.4523 -2.6028 -5.3841 0.0168 -0.8804 -4.7718 1.6068 -1.5980 2.9688 1.9374 -3.2637 1.6472 0.7749 4.0115 3.6082 -2.5762 0.6635 -0.7365 -1.1543 -1.2178 0.5437 1.8339 5.2109 4.0582 -1.7929 -1.8798 -0.3493 2.8580 1.5921 0.9433 -2.7471 0.4672 0.0811 0.1050 -1.6201 -4.5366 0.3754 -2.0281 1.7559 1.5406
6.0633 1.2673 -2.7097 3.2486 0.4520 -4.2865 -3.9435 -0.1741 -0.0944 4.0147 -0.8337 -2.5664 -5.1384 1.5714 0.7323 0.9388 1.5589 -2.1174 -0.2624 2.3716 1.5030 4.1888 1.8842 -1.3397 2.9097 2.6923 -1.3685 1.1284 -0.5423 1.6120 0.4571 -2.9346 0.4619 1.6855 1.2424 0.0616 -1.6801 0.6051 1.0181 1.9419 -2.0007 0.9156 -0.0417 -3.1855 -3.7868 -3.5116 0.4821 5.6843 0.8946 -3.9505 -3.1977 -0.8773 -2.3123 -2.9821 -3.3759 1.7462 5.2462 -3.4222 -0.6232 4.7476 1.0738 -3.8965 -1.7581 -0.7025 -2.2510 -1.6502 -3.1525 2.0027 3.8355 -3.2164 -0.3859 3.4399 4.6317 1.5145 -2.7349 0.6308 0.3570 0.4983 -2.8749 1.2471 1.5049 3.9673 0.2355 -3.1560 -4.1053 0.9148 0.6942 1.7357 1.7704 -1.2094 -0.4558 1.2425 1.0615 0.3338 -3.0509 -1.0157 -3.0841 0.9832 2.9571
5.2353 0.5375 -3.8741 2.5026 1.7983 -5.1064 -1.5515 0.9143 4.6728 2.4068 -0.3239 -4.2776 -3.2578 2.3994 4.8255 0.6398 1.2946 -1.5571 0.4868 2.4078 2.2926 3.7841 0.9140 -1.9970 2.9272 1.9776 -1.3492 1.2838 -0.6874 2.1739 2.0826 -2.6772 0.5065 1.7929 0.8956 0.4234 -1.3599 1.0223 2.0478 0.7634 -2.3536 1.7033 0.7827 -5.1998 -2.7001 -6.1587 1.4235 0.7546 1.4457 -5.7457 -1.6649 0.5224 -3.7717 -2.7241 -5.5261 2.6081 0.6821 -5.5474 0.3181 1.4686 1.8926 -4.9073 -0.5669 0.9384 -2.9934 -1.7095 -4.2281 2.7770 1.3099 -4.3462 0.4740 2.0521 4.0512 1.2608 -3.4423 0.7146 0.2790 1.1590 -2.3258 1.9191 2.6383 2.9140 0.7876 -4.3001 -2.4578 1.7708 4.1434 1.6544 1.3459 -0.8708 -0.0315 1.3713 1.8890 1.6186 -3.5895 -0.5694 -3.6489 1.7529 1.9667
4.3512 0.3946 -1.1377 6.1023 1.2799 -3.7457 -1.3679 0.7476 4.2104 4.9753 -0.7005 -3.8215 -2.4602 2.6565 4.7729 -0.4357 1.8907 -2.3325 0.0352 2.0662 1.5333 2.7691 1.0238 -2.8715 1.9437 2.1313 -2.2526 0.1548 -1.0867 0.6883 0.0376 -2.6791 -1.5432 0.7730 0.7768 -0.6903 -1.9745 0.9161 1.6224 -0.7898 -2.4948 0.0570 3.7057 -4.8918 -1.4821 -6.9304 1.6302 2.3689 3.7462 -3.5480 -1.5227 2.4265 -5.5770 -1.4274 -6.2570 0.5999 2.9111 -6.2039 2.7520 1.8031 2.5110 -2.7855 -1.5193 1.2820 -4.8703 -1.4190 -4.8054 0.6159 2.9418 -4.8596 2.7664 1.8288 4.2022 1.1091 -2.3952 -0.3328 0.1922 0.0389 -2.6475 1.8414 2.5024 5.1030 0.4349 -3.3874 -2.1696 1.8056 3.9412 0.6227 1.5852 -1.7942 -0.7066 1.1739 1.1307 1.3245 -3.4154 -1.4345 -4.1249 1.6591 2.4258
4.2768 1.9604 -3.9233 3.0047 -1.1011 -4.2317 -2.0268 0.1266 4.3442 5.0793 -0.7863 -3.3423 -2.8890 2.0634 5.1538 0.2403 2.0676 -1.8252 0.2119 1.7718 2.3561 3.4937 1.1833 -1.7681 2.5673 2.2937 -1.3215 0.1973 -1.1065 0.9000 0.7521 -2.1694 -1.5471 1.1353 0.9204 -0.0142 -1.9043 0.9901 1.8292 -0.5377 -2.2630 -0.2812 3.5881 -5.3722 -1.5607 -6.7002 2.4039 1.5636 2.4570 -5.5004 -2.2773 3.8032 -4.1878 -0.7492 -5.8922 3.4662 1.7274 -6.1873 1.0638 1.7820 1.4672 -4.4381 -2.2654 2.8801 -3.2104 -0.7252 -4.5091 3.2708 2.1210 -4.9069 0.8819 2.1506 3.4215 0.9864 -3.2648 -0.0893 0.3093 0.4464 -2.6170 1.8268 2.7619 3.9590 -0.3722 -3.6014 -2.5485 1.3684 4.2044 1.1842 1.7537 -1.1082 -0.5409 1.1162 1.6415 1.6553 -3.3474 -1.4989 -4.0253 2.0300 2.3241
2.8791 1.4049 -4.7563 4.0770 -1.3770 -3.3548 -2.2975 -0.5799 4.3365 5.3895 0.4676 -3.6222 -3.3433 1.1983 5.2842 -0.2694 0.8320 -1.8784 -0.0692 2.5650 1.8925 2.9756 1.6565 -2.3459 1.6131 2.2833 -2.1412 1.4531 -0.2407 1.8324 2.3518 -2.0534 0.0262 1.1634 1.2005 -0.0828 -1.4944 0.7600 2.2010 1.3936 -2.0260 1.5609 1.3086 -5.3316 -2.5214 -5.8765 2.6861 0.8700 2.4603 -5.3777 -1.8279 0.4369 -4.1763 -2.4059 -5.0877 3.6060 1.4528 -5.5602 1.2749 0.9952 2.8225 -4.2797 -0.9502 0.7783 -3.1523 -1.6042 -3.9179 3.1865 2.2006 -4.4794 0.8845 1.6937 2.9738 0.6793 -3.4996 0.4582 0.4193 0.9032 -2.4079 1.4491 3.0722 4.2860 -0.0460 -3.5098 -2.7508 0.6960 4.3371 0.7242 1.3477 -1.3786 -0.3678 1.3891 1.7085 1.9981 -3.2249 -0.8134 -3.6210 1.8787 2.3255
4.7872 2.9047 -2.1605 4.6262 -0.2855 -1.1180 -4.4622 0.2101 1.0648 3.7855 1.4274 0.1289 -5.0794 2.3685 1.4082 -0.4548 0.6344 -2.9859 -0.1705 2.1696 0.2341 2.6156 1.9879 -2.6246 1.9220 0.7889 -3.2364 0.6186 -0.9117 0.9576 1.4936 -3.2112 -0.1938 0.9294 0.1157 -1.1906 -1.8934 0.7822 0.9387 0.1718 -2.6610 0.9159 -0.0805 -5.1674 -3.6637 -1.8140 2.5349 5.6396 0.1348 -3.8403 -3.7056 0.2419 -5.9180 -2.4634 -1.7110 3.5304 4.7415 -2.2258 1.2111 5.2095 0.6762 -3.1578 -2.5445 0.7395 -5.2856 -1.3860 -2.0150 3.2794 3.3452 -2.5081 0.9781 3.9152 4.0499 1.6582 -2.2806 -0.0669 -0.2157 -0.1995 -2.7335 1.8073 1.5045 4.1296 0.9662 -0.9490 -4.2058 1.5140 1.3278 0.6550 0.5141 -2.4792 -0.6856 1.0601 0.3271 0.9317 -3.8440 -1.4149 -2.4019 2.0550 2.9376
4.1172 0.9706 -0.3635 6.2105 1.3160 -2.9747 -4.9833 1.1240 0.6523 5.7496 -0.7166 -2.0514 -5.2947 3.1120 1.7056 -0.3632 0.7196 -2.8171 -0.4424 2.3449 1.0415 2.9945 0.5144 -2.4684 1.8756 1.5293 -2.5711 0.0994 -0.8411 1.0566 1.3973 -2.4772 -0.6890 0.6433 0.6960 -0.7226 -2.3626 1.0553 1.1487 -0.0414 -2.5251 0.4094 1.0748 -5.1463 -4.0246 -2.8376 1.6869 6.1145 1.9364 -5.4316 -3.0318 0.2663 -3.9423 -3.9599 -2.3797 2.7927 5.5017 -3.4124 0.6086 5.3307 2.0448 -4.5437 -1.8881 0.3769 -3.1120 -2.9076 -2.4683 2.9080 4.0584 -3.4930 0.7139 3.9923 4.1993 1.1413 -1.8048 -0.4528 0.1394 0.0402 -3.1329 2.0517 1.8479 5.4462 0.4475 -2.2659 -4.5743 2.1651 1.4144 0.5941 0.9227 -2.0786 -1.0523 1.3093 0.7871 1.2693 -3.4467 -1.8070 -3.0044 1.9134 3.3246
5.0154 0.2059 -3.5099 2.3936 -0.8145 -3.5325 -2.1811 0.4093 4.3274 1.9362 1.2141 -4.4517 -2.9676 2.4679 4.8737 0.6504 2.1897 -1.4784 0.3598 1.7808 2.4267 3.7401 0.8686 -1.5598 2.9944 2.0639 -1.0050 0.3658 -1.1716 1.1655 0.9087 -2.3969 -1.2048 1.4160 0.7630 0.1907 -1.7373 1.0321 1.7885 -0.3737 -2.4039 0.0681 3.4386 -5.8391 -1.4258 -6.4062 2.5692 0.8932 3.8186 -4.7967 -0.6652 2.1509 -5.8158 -2.0961 -5.5665 3.6127 1.0111 -5.9773 1.2438 1.3011 2.9572 -3.6336 -0.5456 1.3454 -4.7460 -1.9725 -4.2366 3.4147 1.5559 -4.7459 1.0595 1.8083 3.8788 0.9855 -3.0570 0.1440 0.2129 0.5933 -2.4919 1.9895 2.5529 2.6500 0.4947 -3.7655 -2.5885 1.6662 4.0289 1.5531 1.6937 -0.8135 -0.3626 1.1056 1.6994 1.7558 -3.6158 -1.1529 -3.8375 2.1908 1.9516
3.5484 1.9687 -4.2518 3.5825 -1.3960 -4.2097 -2.6956 -0.4383 4.6303 5.2901 -0.1508 -3.3579 -3.5106 1.5301 5.4148 -0.5112 0.8984 -1.6344 -0.0125 2.2070 2.1807 2.8664 1.1053 -2.0933 1.6255 1.9413 -1.8701 1.0852 -0.7742 1.9496 2.3463 -2.1769 -0.0122 1.0058 0.8089 0.1248 -1.6966 0.6299 2.4040 1.1540 -2.4682 1.3193 1.9892 -4.9600 -3.2491 -5.8359 3.1228 1.0003 3.0476 -5.0425 -2.4230 0.9822 -3.9358 -3.0384 -5.8122 1.7952 1.2155 -4.7534 3.9564 1.4900 3.1747 -4.1155 -1.3121 1.1064 -3.0688 -2.0181 -4.7069 1.1956 1.9405 -3.7273 3.4024 2.1594 3.0572 0.7883 -3.5576 0.1918 0.0672 1.0609 -2.5473 1.4753 3.2005 4.1174 -0.2665 -3.6827 -2.9813 0.8803 4.5213 0.5854 1.1427 -1.1428 -0.4861 1.1016 1.9304 2.2229 -3.1896 -1.0915 -3.7023 1.9658 2.4023
4.6902 2.3202 -2.9460 3.0556 -0.3041 -4.3731 -4.3642 -0.9157 2.2801 5.1261 -0.4633 -3.4351 -4.6391 0.0717 4.3044 0.3589 2.3355 -1.2669 -0.1644 0.9283 2.4996 3.4586 0.9857 -1.3512 2.6421 2.0329 -0.6262 -0.2912 -1.5144 0.4121 0.9774 -2.2816 -1.8672 0.9422 0.5393 0.0900 -2.2722 0.5817 1.6011 -0.6943 -2.2824 -1.1750 3.0485 -6.0213 -1.6914 -4.2927 5.0437 2.4639 2.2901 -5.7454 -2.7673 3.1003 -5.0872 -0.5813 -3.4473 4.6875 3.4467 -4.7746 4.0450 1.5273 1.5576 -4.4936 -2.8369 2.4111 -3.9338 -0.6382 -3.0107 3.3086 3.5633 -4.3763 2.7657 1.6375 3.6240 1.3404 -2.8106 -0.3818 -0.0088 0.2756 -2.9839 0.9701 2.7914 4.0525 0.1090 -3.5519 -4.0840 0.0232 3.2138 1.1893 1.6646 -0.6636 -0.8902 0.5511 1.5836 1.5958 -3.6304 -1.8049 -3.4532 2.3780 2.6963
4.2247 2.3107 -3.1213 3.1610 -0.7388 -4.2068 -4.2846 -0.9650 2.7028 5.2718 -0.3256 -3.4536 -4.5126 0.2874 4.5828 0.3468 2.2703 -1.1096 -0.1433 0.7778 2.5985 3.4341 0.8543 -1.3383 2.6419 1.8840 -0.5626 -0.3325 -1.6274 0.4689 0.7981 -2.1864 -1.9486 0.9203 0.4130 0.1641 -2.2728 0.4818 1.7324 -0.7989 -2.3669 -1.1161 3.2688 -5.6804 -2.0132 -4.3926 5.0091 2.3135 2.4009 -5.4759 -3.0205 3.3215 -4.7490 -0.9005 -5.0183 4.0058 1.6722 -3.2425 4.7261 3.1527 1.5333 -4.3112 -3.0052 2.5091 -3.6775 -0.8793 -4.5487 2.6401 1.8228 -2.8074 3.4619 3.2945 3.4293 1.1296 -2.8256 -0.4104 -0.1185 0.3623 -2.9497 1.0121 2.8885 4.0874 -0.0294 -3.5150 -3.9956 0.0989 3.4884 1.1780 1.5515 -0.5647 -0.8909 0.4270 1.6894 1.5617 -3.4604 -1.9622 -3.4879 2.3710 2.6090
4.0198 0.5413 -0.8467 5.6034 1.0459 -3.7602 -3.6625 -1.0340 3.3774 4.7003 -0.9756 -3.2178 -3.7183 0.4866 5.0620 -0.8018 1.8013 -2.0877 -0.1410 1.4874 1.8665 2.4357 0.9364 -2.6538 1.5797 2.0384 -2.0666 -0.1282 -1.4639 0.5734 0.5667 -2.5108 -1.8457 0.4590 0.5805 -0.5637 -2.2389 0.5128 1.7467 -0.6996 -2.7418 -0.5734 3.8492 -5.2538 -1.7411 -4.9975 4.6417 2.0242 2.7646 -5.5609 -2.4749 3.8714 -4.0334 -0.9547 -3.8931 4.7383 2.7851 -5.4328 3.3442 1.5399 1.6272 -4.6586 -2.5007 2.8122 -3.2049 -0.9660 -3.1306 3.5472 3.1079 -4.7322 2.2380 1.8469 3.8705 1.0677 -2.1942 -0.6205 -0.1085 0.1078 -2.7238 1.1244 2.9566 4.7443 0.2389 -3.0886 -3.4271 0.1877 3.9104 0.2727 1.4631 -1.6034 -0.9377 0.7219 1.3301 1.6357 -3.5381 -1.7548 -3.5267 2.3406 2.6589
4.0112 0.5734 -0.8673 5.5504 1.0174 -3.8106 -3.5998 -1.0249 3.4966 4.7048 -1.0081 -3.1976 -3.6759 0.5571 5.1228 -0.8580 1.6656 -2.1059 -0.1528 1.5182 1.8608 2.3943 0.8550 -2.6663 1.5171 1.9611 -2.1194 -0.0780 -1.4748 0.6660 0.5170 -2.5320 -1.7776 0.4461 0.5458 -0.5415 -2.2277 0.4912 1.7946 -0.6454 -2.8083 -0.4184 3.9830 -5.0387 -1.8461 -5.0842 4.5608 1.9407 2.8787 -5.4327 -2.5053 3.9667 -3.8101 -1.0728 -3.9752 4.7131 2.6859 -5.4922 3.2355 1.5111 1.6805 -4.6134 -2.4679 2.8522 -3.0592 -1.0243 -3.1810 3.5540 3.0463 -4.7620 2.1591 1.8531 3.8301 1.0445 -2.2311 -0.6094 -0.1480 0.1624 -2.7172 1.1374 2.9844 4.7180 0.2105 -3.1063 -3.3887 0.2215 3.9804 0.2289 1.3756 -1.6178 -0.9355 0.7157 1.3587 1.6561 -3.4841 -1.7356 -3.5518 2.3218 2.6480
3.9997 0.6365 -0.7971 5.6643 1.1058 -3.6451 -3.8454 -1.0840 3.1029 4.7513 -0.9220 -3.1422 -3.9077 0.3342 4.8747 -0.8307 1.6806 -2.2189 -0.2368 1.4989 1.8020 2.4436 0.9209 -2.6493 1.5376 2.0157 -2.1279 -0.1236 -1.4566 0.5775 0.6746 -2.5552 -1.7826 0.4276 0.5722 -0.6080 -2.3246 0.5111 1.6161 -0.6289 -2.7799 -0.5480 4.0783 -5.1254 -1.4623 -5.0239 4.6686 2.0316 4.0034 -4.0437 -0.6665 2.9848 -5.4402 -2.3641 -3.9377 4.7064 2.8235 -5.4665 3.4067 1.4667 2.8446 -3.1722 -0.7360 1.8981 -4.6490 -2.4083 -3.2030 3.4871 3.1015 -4.7909 2.2743 1.7307 3.8612 1.1171 -2.1626 -0.6434 -0.1319 0.0588 -2.8363 1.0678 2.8400 4.7812 0.2929 -3.0129 -3.5913 0.0960 3.7157 0.2388 1.4082 -1.6851 -1.0095 0.7214 1.2486 1.8179 -3.4751 -1.5528 -3.6069 2.3130 2.5794

$$$$
