CHEMBL193303
 OpenBabel02201516203D

 23 23  0  0  1  0  0  0  0  0999 V2000
   -5.7502   -1.8298    1.7234 O   0  0  0  0  0
   -0.0184    1.5028    0.0103 C   0  0  0  0  0
    0.3402   -3.7617    3.5933 N   0  0  0  0  0
   -5.3493   -2.5153   -4.5582 O   0  0  0  0  0
   -4.0413   -4.0911   -2.5418 O   0  0  0  0  0
   -2.4402   -0.8212   -2.1313 O   0  0  0  0  0
    1.0605   -0.5961   -0.0113 O   0  0  0  0  0
   -4.6515   -2.1121    3.5135 O   0  0  0  0  0
    1.6525   -1.8794    3.8318 N   0  0  0  0  0
   -4.0375   -2.2217   -4.0734 C   0  0  0  0  0
   -1.1558   -0.6938    0.0094 N   0  0  0  0  0
    0.0448   -1.9574    2.1359 N   0  0  0  0  0
   -3.5354   -2.1587    0.1564 O   0  0  0  0  0
   -2.3252   -2.4704    2.1545 C   0  0  0  0  0
   -3.9207   -2.6691   -2.6149 C   0  0  0  0  0
   -2.5608   -2.2432   -2.0582 C   0  0  0  0  0
   -1.0197   -2.6817    1.4369 C   0  0  0  0  0
   -1.1360   -2.1586    0.0013 C   0  0  0  0  0
   -2.4440   -2.6906   -0.5997 C   0  0  0  0  0
    0.0021   -0.0041    0.0020 C   0  0  0  0  0
   -4.6892   -2.0485    2.2921 C   0  0  0  0  0
    0.6847   -2.5379    3.1963 C   0  0  0  0  0
   -3.4587   -2.2350    1.5075 C   0  0  0  0  0
  1 21  1  0  0  0
  2 20  1  0  0  0
  3 22  1  0  0  0
  4 10  1  0  0  0
  5 15  1  0  0  0
  6 16  1  0  0  0
  7 20  2  0  0  0
  8 21  2  0  0  0
  9 22  2  0  0  0
 10 15  1  0  0  0
 11 18  1  0  0  0
 11 20  1  0  0  0
 12 17  1  0  0  0
 12 22  1  0  0  0
 13 19  1  0  0  0
 13 23  1  0  0  0
 14 17  1  0  0  0
 14 23  2  0  0  0
 15 16  1  0  0  0
 16 19  1  0  0  0
 17 18  1  0  0  0
 18 19  1  0  0  0
 21 23  1  0  0  0
M  CHG  2  19  -1  22   1
M  END

>  <MOLID> (CHEMBL193303)
CHEMBL193303

>  <SMILES_CANONICAL> (CHEMBL193303)
OC[C@H]([C@H]([C-]1OC(=C[C@@H]([C@@H]1NC(=O)C)N[C+](=N)N)C(=O)O)O)O	CHEMBL193303

>  <FINGERPRINT> (CHEMBL193303)
0000000010000000000000000000000010001001000001001111001000000000000000000001000000000001000000011000010000000001000011010000000110000000001111000000000011000001000000000010000000000010000000000000000000001000000000011000000000111000101000000010110000001000000000010000000000000110000000000000000100010000000000001100101010000000001000000000000001000000010000000000000111000000000000001000000000000010101100000000001000000001100010010010000000000000000000100000000000010100000010000011100100011011100100000000100000110100001000010000100000010100100000000000000000000101010000000101000111000001011000000001100000000000000000001110001000000001000000000000000000000000001000000111000000010101001011111011000000010111000000001000000010000000000010100001000000000000000111000000000000000010000101000000001110001000100000001000110000000000010000001100000001000000000000001001000000000000000000010010000100001000000000001100001001010000000000000000010000000100000000011010110000001110000000000000000000000000001000000100101100000001

>  <MACCS166> (CHEMBL193303)
000000000000000000000000100000000000000000100000000011001000000000000001000111100001000011010010111000010101010000001011001000000011100111111100010011111111111110111000

>  <OB_MW> (CHEMBL193303)
331.125

>  <OB_logP> (CHEMBL193303)
-1.8306

>  <OB_PSA> (CHEMBL193303)
198.22

>  <OB_MR> (CHEMBL193303)
75.1467

>  <OB_ATOMIC_CHARGES> (CHEMBL193303)
-0.2372351478 0.0963348876 0.1354154069 -0.2175980227 -0.2206196848 -0.2557029923 -0.2734153502 -0.2372351478 0.1354154069 0.2144374759 -0.2361030533 -0.0865545202 -0.6489600512 0.0562021179 0.1845248314 0.0674418619 0.1960770305 0.0217034249 -0.0817262001 0.2395203371 0.4182202747 0.5347448689 0.1851122457

>  <MCT_HBD> (CHEMBL193303)
8

>  <MCT_HBA> (CHEMBL193303)
11

>  <ENSEMBLE_TOTAL> (CHEMBL193303)
50

>  <ENSEMBLE_RMSD> (CHEMBL193303)
0.000 1.184 1.303 1.388 1.418 1.419 1.432 1.439 1.440 1.474 1.482 1.519 1.548 1.548 1.556 1.562 1.572 1.582 1.583 1.586 1.607 1.619 1.619 1.630 1.648 1.648 1.656 1.663 1.675 1.677 1.678 1.680 1.682 1.689 1.693 1.715 1.727 1.728 1.737 1.751 1.756 1.785 1.791 1.793 1.823 1.829 1.832 1.998 2.002 2.008

>  <ENSEMBLE_COORDS> (CHEMBL193303)
-3.6307 0.1213 1.4201 2.1011 3.4539 -0.2930 2.4597 -1.8106 3.2900 -3.2298 -0.5642 -4.8615 -1.9218 -2.1400 -2.8451 -0.3207 1.1299 -2.4346 3.1800 1.3550 -0.3146 -2.5320 -0.1610 3.2102 3.7720 0.0717 3.5285 -1.9180 -0.2706 -4.3767 0.9637 1.2573 -0.2939 2.1643 -0.0063 1.8326 -1.4159 -0.2076 -0.1469 -0.2057 -0.5193 1.8512 -1.8012 -0.7180 -2.9182 -0.4413 -0.2921 -2.3615 1.0998 -0.7306 1.1336 0.9835 -0.2075 -0.3020 -0.3245 -0.7395 -0.9030 2.1216 1.9470 -0.3013 -2.5697 -0.0974 1.9888 2.8042 -0.5868 2.8930 -1.3392 -0.2839 1.2042
-4.0098 -1.1096 1.6069 4.1072 1.9372 -2.2284 2.4546 -1.1462 4.4403 -3.6386 -0.0705 -5.0375 -2.2724 -1.5867 -3.5939 -0.6425 1.3273 -2.7706 3.8428 1.4758 0.0712 -2.5423 -1.8754 3.2031 3.1143 1.2563 4.4592 -2.6605 0.5898 -4.1068 1.9015 0.6997 -1.2234 2.3454 0.3038 2.0954 -1.5907 -0.5778 -0.0348 -0.2090 -0.4847 2.0487 -2.2848 -0.3328 -2.9516 -0.8627 0.0324 -2.4288 0.9878 0.0021 1.3437 0.8349 0.2037 -0.1784 -0.5921 -0.1335 -0.8363 3.3061 1.3731 -0.9745 -2.6844 -1.2667 2.1117 2.5776 0.1462 3.6513 -1.4826 -0.7636 1.3338
-4.0959 -1.0164 1.8385 4.3095 1.7806 -2.2202 2.4396 -1.0487 4.7050 -3.9116 0.0855 -5.0466 -2.1233 -1.6497 -4.2421 -0.7160 1.3490 -3.0353 3.8918 1.5228 0.1158 -2.5426 -2.0092 3.2617 3.2933 1.3462 4.6423 -2.9136 0.6311 -4.0831 1.9572 0.7194 -1.2539 2.3863 0.3786 2.1803 -1.6196 -0.6198 -0.0229 -0.2270 -0.4615 2.0895 -2.2888 -0.5486 -3.1892 -0.8706 -0.0260 -2.5250 0.9715 0.0308 1.3745 0.8286 0.2022 -0.1729 -0.5962 -0.1688 -0.8426 3.4180 1.3519 -0.9683 -2.7306 -1.2952 2.1976 2.6601 0.2284 3.8236 -1.5200 -0.7826 1.3733
-3.6366 -2.2422 1.4506 4.2829 1.7805 -2.2031 1.8332 0.6397 5.0033 -3.7943 -0.0101 -5.0919 -2.1477 -1.6736 -3.9545 -0.7729 1.4327 -2.9204 3.8939 1.5699 0.1146 -2.8133 -1.2526 3.3900 3.8443 -0.6273 4.1271 -2.9029 0.6141 -4.0804 1.8721 0.9723 -1.2095 2.3164 0.5704 2.1922 -1.5839 -0.6361 -0.0325 -0.2211 -0.4442 2.0851 -2.3059 -0.4745 -3.0917 -0.8880 0.0673 -2.4906 0.9440 0.1480 1.3855 0.7843 0.3482 -0.1581 -0.6049 -0.1001 -0.8256 3.3868 1.4331 -0.9470 -2.6617 -1.4437 2.1232 2.6501 0.1581 3.7738 -1.4748 -0.8300 1.3600
-3.6920 -2.0416 1.3563 4.1028 1.9416 -2.2328 2.5009 -1.1904 4.2282 -3.5618 -0.3024 -4.9672 -3.1993 0.9234 -2.8543 -0.0230 -0.2286 -3.0265 3.8940 1.3541 0.0606 -2.5821 -1.7204 3.2415 2.9434 1.2814 4.4051 -2.1976 -0.3828 -4.3370 1.7563 1.1336 -1.0783 2.2608 0.4142 2.0515 -1.5789 -0.5583 -0.0326 -0.1866 -0.5892 2.0099 -2.3048 -0.0983 -2.8674 -0.9579 0.3841 -2.3303 0.9454 0.0790 1.3442 0.7603 0.4337 -0.1320 -0.6463 0.0513 -0.7938 3.2513 1.4096 -0.9258 -2.5749 -1.5795 2.0229 2.5207 0.1770 3.5659 -1.4307 -0.8915 1.2919
-3.6076 -2.2698 1.4291 4.2558 1.8276 -2.1893 1.7696 0.8209 4.9563 -3.8511 0.0493 -4.9807 -2.1444 -1.5968 -3.9645 -0.7441 1.4408 -2.8847 3.9828 1.0646 0.0386 -2.7033 -1.4390 3.3567 3.7548 -0.4782 4.1807 -2.8653 0.6678 -4.0551 1.8323 1.0602 -1.1754 2.2767 0.6462 2.1896 -1.5662 -0.6667 -0.0508 -0.2159 -0.4480 2.0677 -2.2866 -0.4164 -3.0532 -0.8925 0.0737 -2.4777 0.9247 0.1848 1.3875 0.7603 0.3902 -0.1571 -0.6007 -0.0841 -0.8424 3.4016 1.2720 -0.9673 -2.6051 -1.5238 2.0937 2.5776 0.2913 3.7692 -1.4533 -0.8665 1.3293
-3.6783 -2.0878 1.3385 4.1131 1.9148 -2.2378 2.4976 -1.1946 4.2297 -3.5475 -0.3440 -4.9829 -3.2176 0.9553 -2.8333 -0.0209 -0.2307 -3.0353 3.8967 1.3363 0.0589 -2.5834 -1.7231 3.2450 2.9407 1.2755 4.4143 -2.2047 -0.3753 -4.3416 1.7507 1.1607 -1.0948 2.2713 0.4231 2.0539 -1.5886 -0.5556 -0.0317 -0.1856 -0.5894 2.0129 -2.3222 -0.0753 -2.8629 -0.9623 0.4012 -2.3272 0.9435 0.0856 1.3435 0.7500 0.4447 -0.1280 -0.6520 0.0639 -0.7843 3.2809 1.4181 -0.9370 -2.5769 -1.5897 2.0222 2.5299 0.1800 3.5830 -1.4344 -0.8937 1.2948
-3.7168 -2.2472 1.6202 3.9802 2.6012 -2.0554 2.7164 -1.4987 4.6369 -3.5826 -0.8771 -5.2804 -3.3162 1.2585 -3.7419 -0.0952 -0.1632 -3.4672 3.7667 1.8628 0.2240 -2.9302 -1.0474 3.4397 3.5758 0.9095 4.6645 -2.3816 -0.9199 -4.4236 1.9480 0.8804 -1.2145 2.4954 0.1121 2.1509 -1.6866 -0.4561 0.0161 -0.1889 -0.6050 2.0716 -2.5514 0.0428 -3.1218 -1.0344 0.4050 -2.4745 1.0050 -0.0855 1.3756 0.7994 0.2798 -0.1530 -0.6716 0.0419 -0.7956 3.2601 1.7902 -0.8690 -2.7503 -1.3467 2.2004 2.8904 -0.1522 3.8191 -1.5319 -0.7850 1.3778
-3.7102 -2.2583 1.6173 3.9957 2.5666 -2.0683 2.7232 -1.5005 4.6348 -3.5684 -0.8899 -5.2837 -3.3127 1.2552 -3.7446 -0.1055 -0.1593 -3.4664 3.7786 1.8451 0.2142 -2.9215 -1.0613 3.4370 3.5868 0.8970 4.6617 -2.3798 -0.8980 -4.4262 1.9326 0.9059 -1.2045 2.4652 0.1372 2.1649 -1.6832 -0.4569 0.0163 -0.1926 -0.5932 2.0727 -2.5414 0.0334 -3.1020 -1.0397 0.4028 -2.4576 0.9957 -0.0643 1.3777 0.7918 0.2980 -0.1445 -0.6711 0.0492 -0.7946 3.2581 1.7836 -0.8702 -2.7371 -1.3525 2.1962 2.8653 -0.1557 3.7916 -1.5300 -0.7841 1.3782
-3.6984 -1.9851 1.3622 4.2207 0.9911 -2.1355 2.5830 -1.1854 4.0607 -3.5335 -0.3531 -4.9509 -3.1469 0.9322 -2.8740 -0.0193 -0.2903 -2.9508 3.7194 1.7724 0.0846 -2.5299 -1.7693 3.2010 2.9572 1.2833 4.4033 -2.1597 -0.3510 -4.3305 1.7124 1.2335 -1.0468 2.1950 0.5681 2.0438 -1.5731 -0.5423 -0.0348 -0.2055 -0.5098 2.0163 -2.2781 -0.0800 -2.8719 -0.9574 0.3906 -2.3274 0.9079 0.1817 1.3537 0.7212 0.5121 -0.1253 -0.6612 0.0862 -0.7901 3.2034 1.3074 -0.8756 -2.5522 -1.5669 2.0102 2.5243 0.2303 3.4915 -1.4295 -0.8557 1.2863
-4.0485 -1.3341 1.7927 4.3272 1.7159 -2.2623 1.8271 0.8818 5.1798 -3.9937 0.1792 -5.0142 -2.2014 -1.5942 -4.3598 -0.6945 1.3297 -3.1218 4.0042 1.2600 0.0810 -2.4419 -2.3008 3.1644 3.9736 -0.1803 4.4122 -2.9635 0.6813 -4.0735 1.8851 0.9708 -1.1842 2.2812 0.6014 2.2716 -1.5794 -0.7252 -0.0495 -0.2408 -0.4753 2.0913 -2.3054 -0.5255 -3.2104 -0.8741 -0.0283 -2.5420 0.9194 0.1373 1.4133 0.7854 0.3215 -0.1388 -0.5903 -0.1603 -0.8426 3.4470 1.2901 -0.9760 -2.6608 -1.5437 2.1399 2.6306 0.4019 3.8846 -1.4866 -0.9031 1.3444
-3.6308 -2.4504 1.6674 4.3177 1.9328 -2.2972 2.0902 0.7387 5.4171 -4.1216 0.2915 -5.0932 -2.2330 -1.5392 -4.7005 -0.6888 1.2818 -3.2936 3.9848 1.4955 0.0971 -3.0399 -1.1219 3.4797 4.1365 -0.3409 4.4682 -3.0769 0.7325 -4.1833 1.9438 0.8338 -1.2270 2.3550 0.4691 2.3386 -1.6217 -0.6975 -0.0067 -0.2534 -0.4918 2.1403 -2.3536 -0.5503 -3.3258 -0.9263 -0.0608 -2.5870 0.9639 0.0638 1.4652 0.8082 0.2438 -0.1367 -0.6001 -0.1825 -0.8315 3.4324 1.4093 -0.9875 -2.7595 -1.4548 2.2033 2.8066 0.2621 4.0006 -1.5332 -0.8646 1.3923
-4.0369 -1.4116 1.8048 4.3997 1.6399 -2.2818 1.7593 1.0107 5.1983 -4.0442 0.3140 -5.0205 -2.2494 -1.6004 -4.3627 -0.6466 1.3093 -3.1432 4.0852 1.0577 0.0473 -2.4211 -2.4275 3.1390 3.9428 -0.0973 4.4484 -3.0184 0.7442 -4.0525 1.8836 1.0618 -1.1837 2.2819 0.7127 2.2815 -1.5737 -0.7776 -0.0503 -0.2395 -0.4729 2.1034 -2.3578 -0.5134 -3.2561 -0.8692 -0.0443 -2.5853 0.9078 0.1828 1.4321 0.7704 0.3588 -0.1443 -0.5921 -0.1791 -0.8453 3.5000 1.2092 -0.9989 -2.6514 -1.6384 2.1413 2.6460 0.5114 3.9831 -1.4762 -0.9501 1.3453
-4.0262 -1.4248 1.8012 4.3796 1.5494 -2.2914 1.7660 1.0253 5.1934 -4.0177 0.2875 -5.0241 -2.2461 -1.5678 -4.3673 -0.6665 1.3280 -3.1371 4.0731 1.0616 0.0428 -2.4116 -2.4125 3.1385 3.9490 -0.0667 4.4487 -3.0036 0.7464 -4.0608 1.8720 1.0680 -1.1701 2.2662 0.6820 2.2821 -1.5682 -0.7642 -0.0518 -0.2344 -0.4842 2.0975 -2.3440 -0.4939 -3.2271 -0.8777 -0.0184 -2.5572 0.9061 0.1717 1.4317 0.7681 0.3613 -0.1317 -0.5928 -0.1631 -0.8407 3.4874 1.1850 -1.0032 -2.6352 -1.6374 2.1341 2.6248 0.5157 3.9510 -1.4685 -0.9488 1.3415
-4.0235 -1.4369 1.7990 4.3899 1.5165 -2.2935 1.7626 1.0215 5.1930 -4.0198 0.2766 -5.0258 -2.2461 -1.5723 -4.3664 -0.6599 1.3360 -3.1361 4.0773 1.0383 0.0437 -2.4094 -2.4262 3.1351 3.9481 -0.0793 4.4463 -3.0169 0.7530 -4.0527 1.8687 1.0937 -1.1682 2.2712 0.7187 2.2837 -1.5695 -0.7673 -0.0526 -0.2381 -0.4746 2.1008 -2.3523 -0.4920 -3.2436 -0.8752 -0.0134 -2.5711 0.9017 0.1902 1.4366 0.7627 0.3773 -0.1329 -0.5958 -0.1592 -0.8403 3.4931 1.1747 -1.0045 -2.6378 -1.6489 2.1344 2.6390 0.5232 3.9735 -1.4700 -0.9498 1.3415
-4.0259 -1.4378 1.7994 4.4101 1.4586 -2.2995 1.7568 1.0245 5.1944 -4.0208 0.2819 -5.0281 -2.2506 -1.5762 -4.3635 -0.6572 1.3352 -3.1350 4.0741 1.1017 0.0520 -2.4120 -2.4297 3.1364 3.9448 -0.0850 4.4473 -3.0237 0.7551 -4.0477 1.8719 1.0929 -1.1736 2.2769 0.7245 2.2822 -1.5715 -0.7709 -0.0516 -0.2389 -0.4734 2.1023 -2.3586 -0.4926 -3.2506 -0.8749 -0.0182 -2.5782 0.9031 0.1920 1.4358 0.7641 0.3771 -0.1379 -0.5957 -0.1627 -0.8415 3.4986 1.1804 -1.0037 -2.6418 -1.6505 2.1369 2.6431 0.5241 3.9805 -1.4718 -0.9509 1.3438
-3.4535 -2.5512 1.2884 4.0795 2.0700 -2.2070 1.7335 0.6513 4.8659 -3.5344 -0.2912 -5.1262 -3.2755 1.0877 -2.9924 -0.0466 -0.2934 -3.1470 3.8668 1.3997 0.0615 -2.6245 -1.6899 3.2556 3.8029 -0.5320 4.0580 -2.2835 -0.5369 -4.3612 1.6863 1.3156 -1.1025 2.2758 0.5819 2.1515 -1.5743 -0.6477 -0.0478 -0.1625 -0.5985 2.0300 -2.4168 -0.0406 -2.8964 -0.9842 0.3792 -2.3627 0.9278 0.1522 1.3790 0.7017 0.5056 -0.1125 -0.6632 0.0417 -0.7868 3.2587 1.5457 -0.9447 -2.5030 -1.7595 2.0054 2.5939 0.1965 3.7038 -1.4049 -0.9864 1.2881
-3.4506 -2.5616 1.2855 4.0919 2.0393 -2.2136 1.7301 0.6441 4.8684 -3.5282 -0.3098 -5.1313 -3.2842 1.1101 -2.9831 -0.0454 -0.2952 -3.1499 3.8703 1.3839 0.0618 -2.6184 -1.7141 3.2506 3.8001 -0.5346 4.0594 -2.2847 -0.5445 -4.3623 1.6829 1.3424 -1.1051 2.2807 0.6065 2.1549 -1.5765 -0.6487 -0.0465 -0.1628 -0.5940 2.0323 -2.4247 -0.0261 -2.8973 -0.9844 0.3888 -2.3612 0.9236 0.1644 1.3799 0.6923 0.5178 -0.1118 -0.6661 0.0483 -0.7811 3.2656 1.5407 -0.9510 -2.5025 -1.7698 2.0034 2.5975 0.2004 3.7105 -1.4064 -0.9883 1.2877
-3.4986 -2.5821 1.4941 4.0549 2.4175 -2.0739 1.8587 0.4998 5.0458 -3.6251 -0.6595 -5.2100 -3.2520 1.3329 -3.5849 -0.1062 -0.2487 -3.3888 3.9273 1.4312 0.0924 -2.7488 -1.4622 3.3814 4.0062 -0.5156 4.2305 -2.3779 -0.7662 -4.3929 1.7730 1.2008 -1.1470 2.3597 0.4246 2.1933 -1.6192 -0.6037 -0.0191 -0.1682 -0.6178 2.0537 -2.5212 0.0805 -3.0329 -1.0379 0.3907 -2.4249 0.9550 0.0720 1.3789 0.7382 0.4394 -0.1223 -0.6708 0.0387 -0.8005 3.3006 1.6408 -0.8999 -2.5842 -1.6705 2.1076 2.6902 0.1090 3.7835 -1.4538 -0.9515 1.3359
-4.4705 -1.2679 2.0250 4.5303 1.4456 -2.3437 2.9567 -0.8157 5.7625 -4.1805 0.3022 -5.5364 -2.3994 -1.5976 -5.0267 -0.6885 1.2428 -3.5995 3.8287 2.2683 -0.1775 -2.8969 -1.8564 3.5813 4.2128 1.2650 4.8470 -3.1352 0.7639 -4.5868 2.0614 0.5565 -1.1716 2.4843 0.1803 2.5552 -1.7237 -0.6410 0.0286 -0.3266 -0.5516 2.2566 -2.4769 -0.5529 -3.6674 -0.9713 -0.0701 -2.7532 0.9894 -0.1102 1.6558 0.8730 0.0929 -0.0884 -0.6446 -0.2233 -0.8602 3.4807 1.4911 -1.0890 -2.9971 -1.3031 2.3685 3.1486 0.1915 4.3547 -1.6547 -0.8103 1.4654
-3.5623 -2.6027 1.4940 4.0138 2.6294 -2.0979 2.1658 0.4398 5.3184 -3.6461 -0.8043 -5.3423 -3.3772 1.3539 -3.7691 -0.1543 -0.0591 -3.5344 3.9926 1.4811 0.0766 -2.9709 -1.3617 3.3713 4.2222 -0.6004 4.2767 -2.4576 -0.8470 -4.4788 1.8422 1.1453 -1.1418 2.4097 0.3121 2.2814 -1.6638 -0.5782 0.0032 -0.1993 -0.6487 2.0901 -2.5999 0.0966 -3.1283 -1.0669 0.4253 -2.4717 0.9832 0.0085 1.4408 0.7522 0.3992 -0.1007 -0.6759 0.0441 -0.7830 3.3176 1.7088 -0.9041 -2.6961 -1.6345 2.1260 2.8771 0.0252 3.9168 -1.5061 -0.9326 1.3567
-3.9528 -2.3549 1.8062 4.4380 1.6433 -2.2990 2.4651 0.6226 5.8396 -4.1970 0.3339 -5.4038 -2.4284 -1.5236 -4.9895 -0.6678 1.2116 -3.5603 3.8059 2.0527 0.0124 -3.1107 -1.0800 3.5974 4.5549 -0.2437 4.5932 -3.1309 0.7990 -4.4800 1.9889 0.6902 -1.1917 2.4192 0.3634 2.4890 -1.6852 -0.7090 0.0132 -0.2775 -0.5174 2.2297 -2.4565 -0.5416 -3.5787 -0.9429 -0.1104 -2.7123 0.9762 -0.0156 1.6116 0.8311 0.1597 -0.0973 -0.6384 -0.2384 -0.8637 3.4236 1.5041 -1.0048 -2.8954 -1.4143 2.3066 3.0719 0.2291 4.2516 -1.5913 -0.8607 1.4304
-3.9492 -2.3614 1.7974 4.4462 1.6107 -2.3064 2.4737 0.6073 5.8363 -4.2144 0.3460 -5.3543 -2.4209 -1.4854 -5.0010 -0.6699 1.2131 -3.5667 3.8269 2.0051 -0.0011 -3.1036 -1.1092 3.5878 4.5295 -0.1655 4.6143 -3.1198 0.8022 -4.4884 1.9847 0.7010 -1.1862 2.3989 0.3594 2.4827 -1.6814 -0.7120 0.0124 -0.2771 -0.5226 2.2215 -2.4439 -0.5334 -3.5370 -0.9449 -0.1062 -2.6819 0.9808 -0.0134 1.6116 0.8294 0.1644 -0.0965 -0.6364 -0.2337 -0.8692 3.4270 1.4741 -1.0076 -2.8803 -1.4229 2.2859 3.0343 0.2489 4.2234 -1.5892 -0.8668 1.4229
-4.5106 -1.3219 1.9853 4.5098 1.5331 -2.3800 2.6152 0.0582 6.0285 -4.1870 0.2792 -5.5671 -2.4133 -1.6158 -5.0545 -0.7065 1.2359 -3.5999 3.7807 2.3848 -0.1892 -2.8602 -1.9573 3.5558 4.7146 0.2498 4.6863 -3.1463 0.7358 -4.6018 2.0502 0.6268 -1.1546 2.4410 0.2985 2.6103 -1.7109 -0.6841 0.0138 -0.3522 -0.5290 2.2644 -2.4645 -0.5860 -3.6828 -0.9484 -0.1150 -2.7640 0.9825 -0.0491 1.6901 0.8746 0.1364 -0.0743 -0.6326 -0.2401 -0.8689 3.4534 1.5825 -1.0924 -2.9998 -1.3681 2.3468 3.1661 0.1827 4.3867 -1.6558 -0.8373 1.4615
-3.8709 -2.4281 1.6097 4.2493 2.1924 -2.2226 3.0873 -1.1789 5.2448 -3.7438 -0.8126 -5.5153 -3.4656 1.4143 -4.1704 -0.2350 0.0161 -3.7006 4.0677 1.2193 0.0101 -2.9422 -1.4944 3.5523 3.8560 1.1812 4.8414 -2.5193 -0.7888 -4.7108 1.8220 1.1733 -1.1278 2.4169 0.2777 2.3964 -1.7294 -0.5127 0.0427 -0.2279 -0.6214 2.1425 -2.6750 0.1947 -3.2791 -1.1462 0.5081 -2.5048 0.9759 0.0221 1.5371 0.7396 0.4366 -0.0731 -0.7386 0.1129 -0.7742 3.4191 1.4746 -0.9706 -2.7845 -1.5884 2.2075 3.0143 0.0861 4.0642 -1.5699 -0.8844 1.4005
-4.0767 -1.4190 1.8583 4.1245 2.4464 -2.1512 2.2642 0.3576 5.5349 -3.6742 -0.9414 -5.4247 -3.3909 1.3292 -4.1131 -0.2094 -0.0342 -3.6648 4.0060 1.4266 0.0546 -2.5074 -2.5473 3.1386 4.3224 -0.3773 4.4132 -2.4740 -0.9217 -4.6066 1.7867 1.2219 -1.1268 2.3718 0.4246 2.3792 -1.6644 -0.5947 0.0135 -0.2123 -0.6061 2.1322 -2.6185 0.0982 -3.2133 -1.1072 0.3972 -2.4970 0.9739 0.0825 1.5045 0.7283 0.4537 -0.0740 -0.6906 0.0499 -0.7791 3.3448 1.6484 -0.9276 -2.6888 -1.6708 2.1528 2.8969 0.1136 4.0136 -1.5051 -0.9373 1.3827
-4.0794 -1.4175 1.8559 4.1302 2.4381 -2.1504 2.2425 0.3985 5.5416 -3.6892 -0.9387 -5.4274 -3.3908 1.3271 -4.1161 -0.2010 -0.0434 -3.6644 4.0060 1.4269 0.0588 -2.4989 -2.5630 3.1354 4.3364 -0.4112 4.4017 -2.4734 -0.9296 -4.6060 1.7828 1.2307 -1.1247 2.3778 0.4316 2.3808 -1.6632 -0.5955 0.0123 -0.2087 -0.6086 2.1360 -2.6324 0.0986 -3.2302 -1.1043 0.4072 -2.5082 0.9679 0.0851 1.5110 0.7286 0.4587 -0.0729 -0.6952 0.0541 -0.7780 3.3484 1.6504 -0.9293 -2.6915 -1.6808 2.1531 2.9111 0.1210 4.0391 -1.5034 -0.9394 1.3819
-4.6118 -1.0533 2.4053 3.9513 3.1464 -1.9208 2.9082 -1.1227 5.8203 -3.4443 -1.5840 -6.0501 -3.8576 0.5694 -4.6841 -1.0215 1.9447 -3.2929 4.8147 1.3745 -0.5156 -2.8513 -2.2885 3.4196 4.7174 0.3950 4.8149 -2.3526 -1.3366 -5.0862 2.0306 0.9501 -1.1643 2.5420 0.1505 2.6195 -1.8091 -0.4533 0.0412 -0.3364 -0.5856 2.2622 -2.6212 -0.2356 -3.8130 -1.2571 0.4101 -2.7685 0.9897 -0.0564 1.6570 0.8337 0.3422 -0.0877 -0.7688 0.0742 -0.9026 3.5710 1.7539 -1.0856 -3.0417 -1.4053 2.4347 3.3352 -0.2008 4.3995 -1.7204 -0.7891 1.4972
-4.4944 -1.5221 1.9633 4.1911 2.5642 -2.1500 2.4135 0.3826 6.1192 -4.3034 0.3146 -5.5401 -2.4983 -1.5534 -5.1024 -0.8487 1.3715 -3.5532 4.7170 0.7591 -0.5877 -2.7682 -2.2268 3.4834 4.6175 0.4250 4.8382 -3.2711 0.7632 -4.5574 2.0260 0.8637 -1.1300 2.4061 0.4612 2.6727 -1.6775 -0.7398 -0.0173 -0.3411 -0.5491 2.2654 -2.5112 -0.5520 -3.7196 -0.9731 -0.0597 -2.8102 0.9548 0.0363 1.6966 0.8633 0.2562 -0.0726 -0.6231 -0.2016 -0.8961 3.6316 1.3112 -1.1624 -2.9606 -1.5797 2.3229 3.0806 0.4065 4.4965 -1.6309 -0.9312 1.4410
-4.4920 -1.5286 1.9611 4.1770 2.5997 -2.1372 2.4031 0.3905 6.1208 -4.3072 0.2942 -5.5464 -2.4936 -1.5672 -5.1011 -0.8388 1.3561 -3.5568 4.7223 0.7279 -0.5853 -2.7688 -2.2298 3.4828 4.6272 0.3943 4.8313 -3.2797 0.7620 -4.5546 2.0222 0.8821 -1.1423 2.4175 0.4683 2.6811 -1.6826 -0.7342 -0.0192 -0.3388 -0.5485 2.2689 -2.5311 -0.5548 -3.7245 -0.9797 -0.0425 -2.8231 0.9534 0.0413 1.6932 0.8621 0.2659 -0.0700 -0.6231 -0.1869 -0.8967 3.6671 1.3263 -1.1674 -2.9641 -1.5846 2.3246 3.0802 0.3992 4.5181 -1.6324 -0.9307 1.4428
-4.4911 -1.5309 1.9596 4.1773 2.5998 -2.1351 2.3991 0.3928 6.1213 -4.3082 0.2892 -5.5482 -2.4911 -1.5703 -5.1010 -0.8357 1.3525 -3.5571 4.7217 0.7259 -0.5831 -2.7681 -2.2328 3.4818 4.6303 0.3825 4.8292 -3.2820 0.7592 -4.5541 2.0212 0.8894 -1.1466 2.4207 0.4737 2.6859 -1.6843 -0.7328 -0.0199 -0.3387 -0.5470 2.2708 -2.5374 -0.5552 -3.7278 -0.9837 -0.0389 -2.8276 0.9520 0.0447 1.6925 0.8606 0.2702 -0.0688 -0.6238 -0.1833 -0.8966 3.6772 1.3310 -1.1692 -2.9660 -1.5867 2.3258 3.0839 0.3974 4.5237 -1.6337 -0.9305 1.4445
-4.2851 -1.4313 2.0003 4.1413 2.4493 -2.1252 3.0708 -1.0492 5.4798 -3.7690 -0.8663 -5.6364 -3.4679 1.3867 -4.3750 -0.2420 0.0372 -3.8163 4.2080 0.9506 -0.2248 -2.6151 -2.4538 3.3008 4.0174 1.2502 4.9154 -2.5295 -0.8492 -4.8386 1.8157 1.1618 -1.0905 2.4248 0.3171 2.4764 -1.7442 -0.5436 0.0479 -0.2411 -0.6199 2.2042 -2.7050 0.1635 -3.4081 -1.1541 0.4755 -2.5733 0.9659 0.0205 1.6189 0.7334 0.4277 -0.0391 -0.7542 0.0854 -0.7972 3.4414 1.4453 -1.0151 -2.8161 -1.6194 2.2550 3.0839 0.1562 4.2215 -1.5791 -0.8943 1.4194
-4.4865 -1.5349 1.9569 4.1839 2.5912 -2.1300 2.3944 0.3870 6.1203 -4.3009 0.2642 -5.5693 -2.4794 -1.5909 -5.1005 -0.8277 1.3530 -3.5529 4.7185 0.7169 -0.5774 -2.7641 -2.2464 3.4789 4.6529 0.3007 4.8166 -3.2907 0.7352 -4.5537 2.0127 0.9353 -1.1581 2.4236 0.5227 2.7111 -1.6917 -0.7274 -0.0219 -0.3424 -0.5277 2.2812 -2.5515 -0.5670 -3.7478 -1.0023 -0.0285 -2.8421 0.9432 0.0765 1.6943 0.8502 0.3003 -0.0637 -0.6322 -0.1675 -0.8957 3.6986 1.3443 -1.1755 -2.9696 -1.5948 2.3334 3.1017 0.3844 4.5393 -1.6407 -0.9266 1.4566
-3.4169 -2.4339 1.2291 4.1988 0.3305 -1.8152 1.4146 1.4220 4.2633 -3.5865 -0.0494 -4.8428 -3.1366 0.9243 -2.6153 -0.0332 -0.2989 -2.9260 3.6911 1.8087 0.0349 -2.4649 -1.8902 3.1423 3.5496 0.0645 4.0914 -2.2088 -0.0706 -4.2889 1.7276 1.2328 -1.0277 2.2396 0.4161 1.9394 -1.5161 -0.6416 -0.0729 -0.1178 -0.6958 1.9374 -2.2613 -0.0223 -2.8269 -0.9515 0.4197 -2.3135 0.9644 0.0530 1.2907 0.7381 0.4465 -0.1588 -0.6290 0.0441 -0.8048 3.1985 1.1452 -0.8147 -2.4289 -1.7867 1.9295 2.3698 0.6008 3.4268 -1.3408 -1.0188 1.2230
-4.2824 -1.4446 2.0022 4.1551 2.4224 -2.1307 3.0701 -1.0501 5.4797 -3.7620 -0.8582 -5.6633 -3.4907 1.4045 -4.3549 -0.2429 0.0431 -3.8099 4.2211 0.9055 -0.2324 -2.6039 -2.4765 3.2975 3.9933 1.3025 4.9256 -2.5373 -0.8485 -4.8320 1.8118 1.1780 -1.0890 2.4417 0.3246 2.4828 -1.7453 -0.5463 0.0470 -0.2379 -0.6266 2.2079 -2.7234 0.1741 -3.4393 -1.1613 0.4923 -2.5948 0.9616 0.0202 1.6184 0.7307 0.4348 -0.0385 -0.7578 0.0888 -0.7926 3.4545 1.4262 -1.0231 -2.8176 -1.6408 2.2636 3.0990 0.1779 4.2522 -1.5764 -0.9034 1.4235
-3.8242 -2.4820 1.6240 4.1999 2.3144 -2.1954 2.3429 0.6235 5.5772 -3.7439 -0.7522 -5.4769 -3.3801 1.4593 -4.0936 -0.1911 -0.0598 -3.6831 4.0450 1.3162 0.0290 -2.8444 -1.7465 3.5108 4.3401 -0.4901 4.3828 -2.5091 -0.7948 -4.6863 1.7899 1.2419 -1.1123 2.3742 0.4286 2.3909 -1.6823 -0.6220 0.0270 -0.2149 -0.6243 2.1359 -2.6465 0.1729 -3.2565 -1.1135 0.4039 -2.5121 0.9500 0.0712 1.5213 0.7294 0.4589 -0.0738 -0.7100 0.0428 -0.7747 3.3841 1.5671 -0.9534 -2.7090 -1.7241 2.1781 2.9418 0.1671 4.0533 -1.5285 -0.9721 1.3876
-3.7723 -2.6222 1.5347 4.1560 2.4454 -2.1325 2.5399 0.3234 5.7802 -3.7747 -0.8195 -5.5578 -3.4826 1.3992 -4.2434 -0.2647 0.0306 -3.7572 4.1296 1.0945 -0.1230 -2.9605 -1.6143 3.4981 4.5299 -0.2736 4.4749 -2.5501 -0.8032 -4.7563 1.7798 1.2979 -1.0564 2.3699 0.4021 2.4719 -1.7075 -0.5759 0.0237 -0.2282 -0.6319 2.1677 -2.6915 0.1818 -3.3047 -1.1519 0.4979 -2.5153 0.9598 0.0693 1.6014 0.7161 0.4962 -0.0343 -0.7412 0.1077 -0.7846 3.4001 1.5344 -0.9740 -2.7435 -1.7257 2.1664 3.0310 0.1379 4.1324 -1.5433 -0.9520 1.3883
-3.3514 -2.4433 1.2260 4.2102 0.1380 -1.7563 1.2494 1.6546 4.0837 -3.6317 0.2672 -4.5961 -3.0351 0.8689 -2.6491 -0.0440 -0.4041 -2.7598 3.7048 1.6604 -0.0741 -2.3946 -1.9798 3.0948 3.4699 0.4143 4.0137 -2.1525 0.0883 -4.2266 1.7654 1.1183 -0.9294 2.1843 0.3746 1.9429 -1.4725 -0.6636 -0.0845 -0.1502 -0.6990 1.9029 -2.1081 -0.0377 -2.8166 -0.9319 0.3338 -2.3085 0.9561 0.0444 1.3422 0.7816 0.3939 -0.1885 -0.5881 -0.0141 -0.8097 3.0375 0.9127 -0.7673 -2.4149 -1.7644 1.8918 2.2389 0.7469 3.2676 -1.3233 -1.0102 1.2009
-3.3809 -2.4561 1.2285 4.1896 0.1634 -1.7929 1.2611 1.6112 4.1179 -3.6387 0.1297 -4.7524 -3.0942 0.9510 -2.5804 -0.0426 -0.2733 -2.9157 3.7581 1.6462 -0.0019 -2.4177 -1.9675 3.1195 3.4590 0.3549 4.1107 -2.2306 0.0119 -4.2565 1.7473 1.1949 -0.9930 2.2295 0.3624 1.9591 -1.4906 -0.6779 -0.0831 -0.1088 -0.7408 1.9221 -2.2397 -0.0093 -2.8121 -0.9378 0.3870 -2.3077 0.9747 0.0142 1.3026 0.7694 0.4177 -0.1610 -0.6048 0.0114 -0.8154 3.2150 1.0135 -0.7946 -2.3937 -1.8303 1.9123 2.2886 0.7427 3.3853 -1.3122 -1.0570 1.2087
-4.2887 -1.6391 1.9261 4.0558 2.6712 -2.0553 2.5473 0.0703 5.9753 -3.7808 -0.8317 -5.7324 -3.5239 1.3574 -4.3676 -0.2745 0.0530 -3.8570 4.3262 0.9042 -0.4770 -2.5439 -2.5955 3.2525 4.6650 -0.0120 4.5847 -2.5455 -0.8937 -4.8852 1.7898 1.3026 -1.0007 2.3476 0.5037 2.6123 -1.7175 -0.6008 0.0290 -0.2819 -0.5880 2.2420 -2.7122 0.1228 -3.4584 -1.1399 0.4374 -2.6091 0.9309 0.1209 1.6972 0.7149 0.5107 0.0054 -0.7410 0.0814 -0.7936 3.4402 1.5275 -1.0627 -2.7907 -1.7365 2.2316 3.0968 0.1735 4.3176 -1.5738 -0.9394 1.4252
-4.2894 -1.6352 1.9260 4.0482 2.6895 -2.0504 2.5354 0.0922 5.9795 -3.7737 -0.8485 -5.7377 -3.5284 1.3654 -4.3641 -0.2615 0.0296 -3.8589 4.3313 0.8850 -0.4773 -2.5476 -2.5883 3.2548 4.6707 -0.0309 4.5803 -2.5503 -0.8870 -4.8830 1.7854 1.3178 -1.0014 2.3582 0.5052 2.6144 -1.7162 -0.6026 0.0266 -0.2760 -0.5974 2.2417 -2.7308 0.1296 -3.4632 -1.1486 0.4502 -2.6181 0.9296 0.1188 1.6950 0.7143 0.5176 0.0068 -0.7415 0.0854 -0.7932 3.4462 1.5343 -1.0655 -2.7910 -1.7536 2.2297 3.1052 0.1727 4.3337 -1.5697 -0.9497 1.4241
-4.0473 -2.5938 1.7007 4.1223 2.6310 -2.1183 2.9253 -0.8079 5.8323 -3.8512 -0.6805 -5.7845 -3.5517 1.5346 -4.3664 -0.2714 0.0381 -3.8599 4.3872 0.7016 -0.5673 -2.9807 -1.6435 3.6236 4.3768 1.1403 4.8931 -2.6346 -0.7331 -4.9181 1.8499 1.2086 -1.0466 2.4814 0.2778 2.6177 -1.7561 -0.5698 0.0310 -0.2792 -0.6956 2.2452 -2.7955 0.2648 -3.5251 -1.1807 0.5253 -2.6571 0.9726 -0.0192 1.6906 0.7643 0.4388 -0.0075 -0.7533 0.0928 -0.7982 3.5238 1.4185 -1.1327 -2.8854 -1.7397 2.2862 3.1940 0.1774 4.4230 -1.6106 -0.9663 1.4384
-4.0521 -2.5911 1.7016 4.1423 2.5576 -2.1550 2.8806 -0.7015 5.8630 -3.8387 -0.6881 -5.7841 -3.5525 1.5339 -4.3608 -0.2742 0.0488 -3.8579 4.3823 0.7128 -0.5502 -2.9509 -1.7017 3.6119 4.4377 1.0223 4.8513 -2.6203 -0.7309 -4.9219 1.8291 1.2478 -1.0266 2.4509 0.3201 2.6212 -1.7533 -0.5763 0.0344 -0.2909 -0.6880 2.2383 -2.7872 0.2658 -3.5102 -1.1811 0.5306 -2.6424 0.9595 0.0060 1.6988 0.7539 0.4652 0.0003 -0.7557 0.1010 -0.7940 3.5210 1.4091 -1.1338 -2.8697 -1.7613 2.2733 3.1782 0.1907 4.4098 -1.6089 -0.9726 1.4330
-4.0492 -2.5973 1.6980 4.1469 2.5486 -2.1559 2.8800 -0.7090 5.8615 -3.8413 -0.6838 -5.7849 -3.5550 1.5361 -4.3583 -0.2727 0.0512 -3.8565 4.3834 0.7081 -0.5489 -2.9506 -1.7004 3.6123 4.4300 1.0418 4.8546 -2.6227 -0.7290 -4.9209 1.8301 1.2497 -1.0295 2.4584 0.3201 2.6241 -1.7540 -0.5769 0.0335 -0.2886 -0.6897 2.2406 -2.7921 0.2667 -3.5173 -1.1842 0.5328 -2.6489 0.9590 0.0049 1.6970 0.7532 0.4645 0.0007 -0.7559 0.1011 -0.7940 3.5240 1.4055 -1.1353 -2.8720 -1.7657 2.2761 3.1829 0.1954 4.4179 -1.6096 -0.9748 1.4342
-4.1564 -2.4482 1.7600 4.5491 1.5801 -2.3635 2.9338 -1.0539 5.8039 -3.9010 -0.8077 -5.7875 -3.5905 1.4364 -4.4431 -0.2939 -0.1434 -3.8861 4.0319 2.6254 -0.1726 -3.0487 -1.4615 3.6515 4.4888 0.7765 4.9149 -2.6828 -0.8621 -4.9123 1.9529 1.0680 -1.0947 2.5183 0.1757 2.6131 -1.7587 -0.5215 0.0288 -0.2949 -0.6711 2.2400 -2.8013 0.2094 -3.5539 -1.1680 0.4778 -2.7019 0.9926 -0.0661 1.6714 0.8203 0.3792 -0.0455 -0.7227 0.0816 -0.8366 3.4871 1.7742 -1.0651 -2.9566 -1.5978 2.3199 3.2436 -0.0525 4.4106 -1.6431 -0.8986 1.4486
-4.1561 -2.4446 1.7601 4.5485 1.5909 -2.3553 2.9263 -1.0537 5.8058 -3.9240 -0.7683 -5.7920 -3.5962 1.4545 -4.4354 -0.2865 -0.1459 -3.8836 4.0216 2.6352 -0.1638 -3.0547 -1.4519 3.6536 4.4538 0.8570 4.9382 -2.7011 -0.8526 -4.9073 1.9691 1.0342 -1.1194 2.5479 0.1361 2.6163 -1.7596 -0.5329 0.0224 -0.2848 -0.6916 2.2406 -2.8210 0.2119 -3.5626 -1.1697 0.4616 -2.7219 1.0033 -0.0943 1.6613 0.8326 0.3495 -0.0513 -0.7141 0.0633 -0.8435 3.5184 1.7882 -1.0730 -2.9618 -1.6017 2.3255 3.2485 -0.0326 4.4342 -1.6404 -0.9123 1.4513
-4.1538 -2.4423 1.7566 4.5513 1.5881 -2.3492 2.9234 -1.0618 5.8014 -3.9210 -0.7731 -5.7983 -3.5962 1.4642 -4.4284 -0.2859 -0.1239 -3.8770 4.0148 2.6381 -0.1538 -3.0559 -1.4491 3.6539 4.4379 0.8854 4.9452 -2.7118 -0.8518 -4.9016 1.9803 1.0285 -1.1409 2.5720 0.1271 2.6260 -1.7627 -0.5357 0.0199 -0.2799 -0.6969 2.2450 -2.8375 0.2067 -3.5800 -1.1826 0.4569 -2.7376 1.0089 -0.1010 1.6542 0.8353 0.3407 -0.0553 -0.7155 0.0574 -0.8467 3.5360 1.7956 -1.0767 -2.9678 -1.6026 2.3330 3.2560 -0.0336 4.4497 -1.6453 -0.9172 1.4604
-4.4534 -2.0241 2.2482 4.8117 0.9236 -2.3819 2.3346 0.5505 6.1603 -4.3484 1.0454 -5.7290 -3.2065 -1.2397 -5.0305 -0.0052 -0.8154 -3.8700 4.4841 2.2635 -0.3446 -2.7305 -2.4159 3.6299 4.5208 1.0542 4.9204 -3.2170 1.3018 -4.7188 1.9880 1.0346 -1.1545 2.3872 0.5856 2.7121 -1.7009 -0.8626 0.0065 -0.3457 -0.6060 2.2753 -2.7330 -0.0881 -3.7941 -1.0868 -0.1103 -2.8672 0.9324 0.0810 1.6911 0.8408 0.3253 -0.1046 -0.6839 -0.2216 -0.9578 3.7347 1.4004 -1.1803 -2.9029 -1.8173 2.4248 3.0151 0.7080 4.5817 -1.6351 -1.0731 1.4829
-4.4761 -1.9687 2.2536 4.8161 0.9037 -2.3855 2.3288 0.5603 6.1606 -4.3405 1.0507 -5.7404 -3.2069 -1.2420 -5.0287 -0.0104 -0.8107 -3.8683 4.4829 2.2644 -0.3419 -2.7025 -2.4623 3.6304 4.5262 1.0500 4.9163 -3.2098 1.3104 -4.7245 1.9891 1.0404 -1.1570 2.3822 0.6081 2.7182 -1.7045 -0.8773 0.0043 -0.3466 -0.6023 2.2791 -2.7495 -0.0902 -3.7995 -1.0788 -0.1264 -2.8777 0.9267 0.0893 1.6914 0.8367 0.3274 -0.1044 -0.6791 -0.2399 -0.9566 3.7455 1.4090 -1.1833 -2.9083 -1.8313 2.4426 3.0126 0.7159 4.5853 -1.6337 -1.0788 1.4860
-4.4958 -1.9176 2.2555 4.8196 0.8807 -2.3876 2.3198 0.5736 6.1607 -4.3331 1.0592 -5.7509 -3.2052 -1.2483 -5.0266 -0.0178 -0.8028 -3.8660 4.4815 2.2631 -0.3387 -2.6729 -2.5126 3.6292 4.5342 1.0360 4.9116 -3.2021 1.3164 -4.7312 1.9922 1.0526 -1.1635 2.3778 0.6390 2.7271 -1.7097 -0.8926 -0.0004 -0.3489 -0.5942 2.2842 -2.7701 -0.0958 -3.8092 -1.0720 -0.1451 -2.8888 0.9201 0.1026 1.6911 0.8306 0.3307 -0.1037 -0.6760 -0.2513 -0.9538 3.7650 1.4129 -1.1866 -2.9160 -1.8472 2.4633 3.0131 0.7258 4.5905 -1.6343 -1.0851 1.4938

$$$$
CHEMBL317571
 OpenBabel02201516203D

 27 28  0  0  1  0  0  0  0  0999 V2000
   -2.1243    3.0798    0.1774 O   0  0  0  0  0
    0.0309    0.8079    0.7724 C   0  0  0  0  0
   -2.3933   -4.8250   -3.5566 C   0  0  0  0  0
   -4.9519   -1.6669   -1.6337 N   0  0  0  0  0
   -3.2548   -3.9281   -1.5508 O   0  0  0  0  0
   -4.2273    2.8988   -0.0115 O   0  0  0  0  0
    0.4770   -1.2169   -3.0535 O   0  0  0  0  0
   -0.2734   -0.6351    0.3645 C   0  0  0  0  0
    1.8634   -1.4302   -0.7491 C   0  0  0  0  0
    1.8853   -2.9550   -0.6250 C   0  0  0  0  0
   -2.3430   -2.4362   -2.9164 N   0  0  0  0  0
   -1.6695    0.7455   -1.1686 O   0  0  0  0  0
    5.9286   -4.3017   -0.3341 C   0  0  0  0  0
    5.3298   -4.1751   -1.5735 C   0  0  0  0  0
    5.2192   -3.9920    0.8112 C   0  0  0  0  0
    4.0214   -3.7391   -1.6676 C   0  0  0  0  0
    3.9122   -3.5519    0.7168 C   0  0  0  0  0
   -4.0101    0.5557   -1.3716 C   0  0  0  0  0
   -3.9297   -0.7385   -2.1348 C   0  0  0  0  0
   -2.5407   -1.3572   -1.9454 C   0  0  0  0  0
   -1.4911   -0.2603   -2.1698 C   0  0  0  0  0
    0.4768   -0.9681   -0.8489 N   0  0  0  0  0
   -2.6951   -3.6986   -2.6020 C   0  0  0  0  0
   -3.1032    2.4635   -0.2213 C   0  0  0  0  0
    3.3117   -3.4302   -0.5223 C   0  0  0  0  0
   -0.1087   -0.8495   -2.0570 C   0  0  0  0  0
   -2.9286    1.1991   -0.9530 C   0  0  0  0  0
  1 24  1  0  0  0
  2  8  1  0  0  0
  3 23  1  0  0  0
  4 19  1  0  0  0
  5 23  2  0  0  0
  6 24  2  0  0  0
  7 26  2  0  0  0
  8 22  1  0  0  0
  9 10  1  0  0  0
  9 22  1  0  0  0
 10 25  1  0  0  0
 11 20  1  0  0  0
 11 23  1  0  0  0
 12 21  1  0  0  0
 12 27  1  0  0  0
 13 14  1  0  0  0
 13 15  2  0  0  0
 14 16  2  0  0  0
 15 17  1  0  0  0
 16 25  1  0  0  0
 17 25  2  0  0  0
 18 19  1  0  0  0
 18 27  2  0  0  0
 19 20  1  0  0  0
 20 21  1  0  0  0
 21 26  1  0  0  0
 22 26  1  0  0  0
 24 27  1  0  0  0
M  CHG  1  22  -1
M  END

>  <MOLID> (CHEMBL317571)
CHEMBL317571

>  <SMILES_CANONICAL> (CHEMBL317571)
CC[N-](C(=O)[C@@H]1OC(=C[C@@H]([C@H]1NC(=O)C)N)C(=O)O)CCc1ccccc1	CHEMBL317571

>  <FINGERPRINT> (CHEMBL317571)
0000000010000011000000000000000010001001000000000111011000000000000000000001000000000001000000011000000000000001000001110000000110000000000010000000000010000001000000000000000000000010000000000000000000001000000000011000000000111000101000000000110000000100000000010010000000000000100000000000000000011000100010011110100010001000001000000000000001000000010000000000001111010010000000001000110000000010100000000000001000000000000010000000000000000000000000100000100000010100000010000011100000001001100100000000100000110100001000000000000000000100100000100000000000000001010000010100000011000001010000000001100000000000000000001110001000000001000000000000000001000000001000000011100000101010000011111000000000010111000000001000000000000000100010110101000000000000000111000000000000000000000101000000000010000000100000000000110000000000000000001100000001000000000000001001000000000000000000010010000100001100000000000100001000000000000000000000011000000100000100110000110000000100000000000000000000000000001000000110011100000001

>  <MACCS166> (CHEMBL317571)
000000000000000000000000000000000000000000000000110001001000000000000001000100110001110000010010111100000001011001011101011000001010100111111100111111111111111110111000

>  <OB_MW> (CHEMBL317571)
375.179

>  <OB_logP> (CHEMBL317571)
1.9755

>  <OB_PSA> (CHEMBL317571)
121.96

>  <OB_MR> (CHEMBL317571)
99.6859

>  <OB_ATOMIC_CHARGES> (CHEMBL317571)
-0.2371376449 -0.0234444805 0.0964256833 -0.1260446411 -0.2733276804 -0.2371376449 -0.3127467044 -0.1073440928 -0.1025323654 0.004614737 -0.2011960469 -0.4652997933 -2.00288e-05 -0.0003231797 -0.0003231797 -0.0043186206 -0.0043186206 0.0381299477 0.1407829534 0.1623819895 0.2261581356 -0.5406714472 0.2419928117 0.4207915697 -0.0238378471 0.113181882 0.2155643085

>  <MCT_HBD> (CHEMBL317571)
3

>  <MCT_HBA> (CHEMBL317571)
8

>  <ENSEMBLE_TOTAL> (CHEMBL317571)
49

>  <ENSEMBLE_RMSD> (CHEMBL317571)
0.000 0.455 0.491 0.555 0.752 0.880 0.910 1.210 1.464 1.520 1.530 1.532 1.627 1.665 1.830 1.840 1.895 1.907 1.943 1.973 1.976 1.986 1.990 2.002 2.019 2.024 2.092 2.095 2.115 2.120 2.129 2.130 2.138 2.144 2.176 2.177 2.177 2.179 2.210 2.310 2.326 2.355 2.371 2.387 2.391 2.405 2.422 2.425 2.455

>  <ENSEMBLE_COORDS> (CHEMBL317571)
-1.7692 4.5022 1.3190 0.3860 2.2303 1.9140 -2.0382 -3.4026 -2.4150 -4.5968 -0.2445 -0.4921 -2.8997 -2.5057 -0.4092 -3.8722 4.3212 1.1301 0.8321 0.2055 -1.9119 0.0817 0.7873 1.5061 2.2185 -0.0078 0.3925 2.2404 -1.5326 0.5166 -1.9879 -1.0138 -1.7748 -1.3144 2.1679 -0.0270 6.2837 -2.8793 0.8075 5.6849 -2.7527 -0.4319 5.5743 -2.5696 1.9528 4.3765 -2.3167 -0.5260 4.2673 -2.1295 1.8584 -3.6550 1.9781 -0.2300 -3.5746 0.6839 -0.9932 -2.1856 0.0652 -0.8038 -1.1360 1.1621 -1.0282 0.8319 0.4543 0.2927 -2.3400 -2.2762 -1.4604 -2.7481 3.8859 0.9203 3.6668 -2.0078 0.6193 0.2464 0.5729 -0.9154 -2.5735 2.6215 0.1886
-1.7330 4.5335 1.3542 0.5998 2.5309 1.3284 -2.0237 -3.3698 -2.4777 -4.4812 -0.0580 -0.8972 -2.7264 -2.3242 -1.0969 -3.7801 4.4722 0.8305 0.3448 -0.5795 -0.7155 0.2175 0.9572 1.2110 2.2018 0.0119 0.5437 2.3072 -1.4430 0.2982 -1.9490 -0.9361 -1.7886 -1.5215 1.9355 0.4940 6.3063 -2.8536 0.7637 5.6428 -2.8570 -0.2835 5.7146 -2.4297 1.6380 4.3374 -2.4085 -0.4126 4.4187 -1.9528 1.5249 -3.6397 1.9987 -0.3133 -3.5154 0.7450 -1.1021 -2.2734 -0.0054 -0.6646 -1.3175 0.9822 -0.5798 0.7529 0.4484 0.5455 -2.3312 -2.2288 -1.5208 -2.7530 3.9113 0.8495 3.7688 -1.9220 0.4457 0.0633 0.2666 -0.3023 -2.6307 2.5749 0.3276
-1.7429 4.5229 1.3827 0.6109 2.5513 1.3003 -2.0234 -3.3711 -2.4771 -4.4694 -0.0266 -0.9687 -2.7136 -2.3037 -1.1927 -3.7722 4.4833 0.8174 0.3244 -0.6128 -0.6396 0.2217 0.9701 1.1703 2.1970 0.0024 0.5456 2.3096 -1.4378 0.2900 -1.9645 -0.9563 -1.7579 -1.5201 1.9369 0.4981 6.3060 -2.8534 0.7656 5.6267 -2.8920 -0.2164 5.7499 -2.3990 1.5664 4.3238 -2.4382 -0.3559 4.4556 -1.9222 1.4607 -3.6409 1.9964 -0.3078 -3.5142 0.7483 -1.1038 -2.2824 -0.0225 -0.6262 -1.3437 0.9624 -0.5424 0.7620 0.4514 0.5450 -2.3393 -2.2345 -1.5027 -2.7527 3.9129 0.8541 3.7740 -1.9114 0.4302 0.0494 0.2694 -0.2652 -2.6318 2.5739 0.3299
-1.7595 4.5064 1.4288 0.6154 2.5580 1.2948 -2.0244 -3.3853 -2.4656 -4.4336 0.0542 -1.1516 -2.6975 -2.2725 -1.3156 -3.7723 4.4880 0.8297 0.2924 -0.6627 -0.5274 0.2393 1.0042 1.0946 2.1880 -0.0112 0.5527 2.3192 -1.4223 0.2725 -1.9999 -0.9980 -1.6886 -1.5053 1.9537 0.4680 6.3068 -2.8586 0.7634 5.5936 -2.9635 -0.0880 5.8188 -2.3289 1.4274 4.2980 -2.4987 -0.2475 4.5244 -1.8596 1.3367 -3.6403 2.0026 -0.3117 -3.5181 0.7411 -1.0922 -2.2976 -0.0510 -0.5557 -1.3968 0.9216 -0.4538 0.7736 0.4525 0.5340 -2.3450 -2.2369 -1.4934 -2.7539 3.9154 0.8623 3.7810 -1.8946 0.4004 0.0201 0.2625 -0.1842 -2.6264 2.5834 0.3103
-1.7626 4.5074 1.4365 0.6534 2.6049 1.1760 -2.1438 -3.5746 -2.0820 -4.4505 0.0316 -1.0999 -2.4651 -1.9086 -2.1699 -3.7757 4.4836 0.8710 0.2649 -0.7074 -0.4321 0.2768 1.0574 1.0302 2.1711 -0.0373 0.5822 2.3347 -1.4005 0.2455 -2.2957 -1.3829 -0.8840 -1.4376 2.0359 0.2840 6.3042 -2.8723 0.7684 5.5517 -3.0556 0.0717 5.9037 -2.2288 1.2682 4.2670 -2.5735 -0.1246 4.6089 -1.7652 1.2156 -3.6680 1.9671 -0.2299 -3.4869 0.7882 -1.1628 -2.1537 0.1598 -0.9989 -1.6057 0.6726 0.0811 0.7733 0.4370 0.5361 -2.2243 -2.0458 -1.9273 -2.7655 3.9008 0.9025 3.7818 -1.8888 0.3763 -0.0256 0.2189 -0.0501 -2.6309 2.5759 0.3161
-1.5854 4.7593 1.1907 0.8271 2.5332 1.5470 -3.0106 -3.6586 -2.6980 -5.3245 0.2516 -0.7072 -4.8909 -2.3509 -1.8825 -3.8474 4.5595 1.3806 0.5947 -0.4944 -1.7579 0.8020 0.9455 1.6583 2.6423 -0.0812 0.3605 2.9315 -1.6189 0.4496 -2.7870 -0.9704 -2.0379 -1.4914 1.9147 0.0535 7.2382 -2.6923 1.2456 6.8177 -2.5153 -0.0661 6.3329 -2.5434 2.3084 5.4026 -2.1627 -0.3475 4.9584 -2.1985 2.0652 -3.8866 2.0704 -0.1240 -3.9603 0.8485 -0.9869 -2.8167 -0.1024 -0.7444 -1.4677 0.7029 -0.5982 1.1235 0.3311 0.4790 -3.6659 -2.3190 -2.1482 -2.7513 4.0274 0.9803 4.4718 -1.9715 0.7258 0.0660 0.1122 -0.6251 -2.7232 2.6231 0.2796
-1.6615 4.7377 1.2366 0.8386 2.6628 1.3636 -2.9310 -3.7866 -2.3092 -5.0571 0.6237 -1.5265 -4.7057 -2.1417 -2.3732 -3.8426 4.3973 1.5443 0.5306 -0.4231 -1.7762 0.7425 1.0298 1.5100 2.5682 -0.0833 0.4213 2.8888 -1.5218 0.2863 -2.7414 -1.3931 -1.0329 -1.4433 1.9895 -0.1360 7.0867 -2.7465 1.2370 6.7322 -2.5127 -0.0779 6.1289 -2.6171 2.2748 5.3451 -2.0950 -0.4119 4.7981 -2.2059 1.9874 -3.8490 1.9408 0.0004 -3.9026 0.6003 -0.5844 -2.6650 0.1392 -1.1934 -1.4734 0.5919 -0.3350 1.1192 0.3866 0.4575 -3.5393 -2.3297 -1.9573 -2.7351 3.9388 1.0674 4.3863 -1.9080 0.6194 0.0571 0.1400 -0.6078 -2.6754 2.5858 0.3158
-1.8337 4.3893 1.6563 0.5776 2.4947 1.3871 -2.1367 -3.5251 -2.1418 -4.1259 0.4212 -1.9178 -2.2083 -1.6136 -2.5512 -3.7696 4.4865 0.7887 0.0280 -1.0113 0.2003 0.5893 1.4664 0.1449 2.1013 -0.1223 0.8542 2.4116 -1.3008 -0.0068 -2.3078 -1.4333 -0.7113 -1.4743 1.9996 0.3466 6.2884 -2.8797 0.8154 5.1830 -3.4815 1.0589 6.1543 -1.8027 0.3060 3.9332 -2.9564 0.7694 4.9050 -1.2604 0.0399 -3.6515 1.9843 -0.2819 -3.6473 0.5589 -0.7138 -2.2345 0.0529 -0.7915 -1.6175 0.5491 0.3517 0.7873 0.5056 0.4085 -2.1802 -2.0248 -1.9634 -2.7834 3.8694 0.9332 3.8088 -1.8691 0.3166 -0.1693 -0.0756 0.3856 -2.6280 2.5787 0.3162
-1.9713 4.4151 1.8254 0.7009 2.7067 0.9860 -2.2999 -3.5765 -2.3323 -4.2103 0.5652 -2.1416 -2.2391 -1.3487 -3.2709 -3.6288 4.7393 0.3887 -0.5241 -1.3978 1.6273 0.7648 1.4843 0.0976 2.0881 -0.2689 0.4635 2.6479 -1.1945 1.2869 -2.4623 -1.3794 -0.8558 -1.6189 1.6474 0.7472 6.4806 -2.9493 0.0418 5.3237 -3.7013 0.0848 6.4176 -1.6079 0.4036 4.0555 -3.1258 0.4961 5.2054 -1.0027 0.8178 -3.6272 2.0322 -0.5520 -3.6745 0.5544 -0.8911 -2.3009 0.1025 -0.8322 -1.8339 0.3991 0.4080 0.8590 0.3625 0.6153 -2.2996 -2.0023 -2.1967 -2.7843 3.9552 0.8521 3.9545 -1.7485 0.8091 -0.3471 -0.2021 0.7609 -2.6754 2.5419 0.3605
-1.8261 4.4117 1.6676 0.7421 2.7197 0.8713 -2.1123 -3.5294 -2.2410 -4.0872 0.5242 -2.1310 -2.0122 -1.2994 -3.0747 -3.6344 4.6801 0.4462 -0.3050 -1.3574 1.5382 0.6546 1.5107 -0.1005 2.0726 -0.1795 0.8050 2.4612 -1.2148 -0.1015 -2.3771 -1.4228 -0.7306 -1.6246 1.7199 0.8195 6.3253 -2.8943 0.7405 5.1714 -3.5755 1.0514 6.2628 -1.6629 0.1532 3.9391 -3.0296 0.7767 5.0329 -1.0996 -0.1304 -3.6534 1.9731 -0.3722 -3.6371 0.5573 -0.7881 -2.2612 0.0363 -0.7052 -1.7936 0.3722 0.6230 0.7711 0.3679 0.5343 -2.1503 -1.9936 -2.0707 -2.7431 3.9333 0.8530 3.8456 -1.7844 0.2065 -0.3800 -0.2625 0.9357 -2.6810 2.4993 0.4239
-1.8168 4.4130 1.6582 0.7457 2.7146 0.8639 -2.0970 -3.5190 -2.2325 -4.0618 0.5243 -2.1502 -2.0068 -1.2994 -3.0507 -3.6367 4.6693 0.4466 -0.3046 -1.3546 1.5388 0.6532 1.5229 -0.1240 2.0669 -0.1902 0.8455 2.4558 -1.2190 -0.1397 -2.3729 -1.4285 -0.7221 -1.6150 1.7395 0.8109 6.3196 -2.8791 0.7491 5.1667 -3.5450 1.1038 6.2477 -1.6734 0.1035 3.9305 -3.0081 0.8170 5.0108 -1.1215 -0.1900 -3.6528 1.9752 -0.3564 -3.6329 0.5682 -0.7922 -2.2595 0.0241 -0.6922 -1.7819 0.3686 0.6481 0.7652 0.3597 0.5418 -2.1436 -1.9972 -2.0628 -2.7444 3.9274 0.8415 3.8337 -1.7946 0.1810 -0.3893 -0.2768 0.9448 -2.6796 2.4994 0.4181
-1.8154 4.4112 1.6596 0.7468 2.7138 0.8624 -2.0985 -3.5183 -2.2277 -4.0565 0.5255 -2.1548 -2.0074 -1.2968 -3.0464 -3.6383 4.6644 0.4456 -0.3044 -1.3551 1.5365 0.6540 1.5272 -0.1316 2.0657 -0.1933 0.8541 2.4577 -1.2157 -0.1511 -2.3703 -1.4302 -0.7219 -1.6107 1.7456 0.8065 6.3172 -2.8764 0.7533 5.1625 -3.5391 1.1154 6.2454 -1.6750 0.0958 3.9275 -3.0030 0.8234 5.0066 -1.1259 -0.2020 -3.6519 1.9766 -0.3508 -3.6318 0.5700 -0.7942 -2.2587 0.0206 -0.6897 -1.7782 0.3663 0.6559 0.7647 0.3576 0.5444 -2.1431 -1.9970 -2.0631 -2.7460 3.9241 0.8401 3.8336 -1.7948 0.1751 -0.3914 -0.2818 0.9478 -2.6792 2.4992 0.4173
-1.9117 4.3785 2.0439 0.8925 2.6039 1.3976 -2.9873 -3.6322 -2.7633 -4.8532 0.9137 -2.1177 -4.4670 -1.7455 -3.1612 -3.6035 4.9306 0.6008 -0.2504 -1.7210 0.8067 1.2835 1.6217 0.2125 2.4036 -0.4304 1.0930 3.0647 -1.4409 0.0646 -3.1082 -1.4467 -1.0519 -1.6360 1.7102 0.5535 7.3103 -2.6099 1.0484 6.2650 -3.3176 1.6270 7.0475 -1.5501 0.1689 4.8616 -2.9505 1.3153 5.6972 -1.1690 -0.1492 -3.8099 2.1916 -0.3748 -4.0064 0.8033 -0.8764 -2.6942 0.0576 -1.0979 -1.7445 0.3581 0.2012 1.1013 0.2950 0.5563 -3.5825 -2.2072 -2.4009 -2.7852 4.0261 1.0068 4.5739 -1.8499 0.4393 -0.2951 -0.4097 0.4887 -2.7658 2.5904 0.3687
-1.7659 5.2754 0.4329 0.2348 1.8478 2.5508 -4.0683 -3.5920 -3.0951 -5.7567 0.4740 -0.8686 -5.6529 -1.9448 -2.2502 -3.9719 4.9782 1.0642 -0.0419 -1.6280 -0.7992 1.2526 1.4569 1.3323 2.6515 -0.7044 0.3012 3.8867 -0.9377 1.5072 -3.1593 -1.1383 -2.0373 -1.6770 1.8846 0.2856 7.9801 -3.0448 0.6991 7.9391 -1.6865 0.7657 6.8068 -3.8086 0.8747 6.6686 -0.9626 1.0268 5.5284 -3.1827 1.1341 -4.0510 2.2755 -0.3644 -4.2475 0.9310 -1.0609 -3.1734 -0.1663 -0.7439 -1.6225 0.5774 -0.5186 1.2057 0.1677 0.5579 -4.4063 -2.1887 -2.4133 -2.8790 4.3745 0.5682 5.3570 -1.6968 1.1585 -0.1637 -0.3497 -0.2407 -2.8741 2.7890 0.1332
-1.7773 4.9111 1.2400 0.7370 2.6146 1.3446 -4.1013 -3.8665 -2.2727 -5.0840 0.9882 -2.1823 -5.0984 -1.7427 -2.9663 -4.0352 4.6433 1.4455 -0.4284 -1.8020 0.5118 1.3078 1.6175 0.1313 2.4669 -0.7542 0.7538 4.0045 -0.5960 0.0982 -3.4142 -1.4533 -1.0456 -1.6527 1.8532 0.1976 7.6778 -3.1889 1.3346 7.5365 -1.9100 1.8125 6.6956 -3.7027 0.4573 6.4403 -1.0744 1.4512 5.5316 -2.8926 0.0589 -3.9703 2.2704 -0.4244 -4.1758 0.8877 -0.9705 -2.9230 0.0390 -1.2213 -1.7862 0.4203 -0.0371 1.1707 0.2095 0.3668 -4.2608 -2.2742 -2.1806 -2.9189 4.0957 0.9995 5.2816 -1.5590 0.6009 -0.3486 -0.4366 0.2527 -2.8753 2.7025 0.2436
-1.7859 4.8945 1.2916 0.7327 2.5973 1.3703 -4.1184 -3.8660 -2.2620 -5.0638 0.9984 -2.2408 -5.0944 -1.7475 -2.9775 -4.0537 4.6857 1.3655 -0.4223 -1.8120 0.4952 1.3098 1.6211 0.1733 2.4613 -0.7782 0.8159 4.0123 -0.5803 0.0883 -3.4320 -1.4667 -1.0100 -1.6492 1.8602 0.2158 7.6878 -3.1971 1.3056 7.5562 -1.9063 1.7955 6.7076 -3.6976 0.4412 6.4476 -1.0693 1.4386 5.5386 -2.8862 0.0412 -3.9579 2.2930 -0.4617 -4.1899 0.8937 -0.9881 -2.9259 0.0273 -1.2045 -1.8062 0.4060 0.0209 1.1573 0.1895 0.4067 -4.2759 -2.2839 -2.1640 -2.9272 4.1275 0.9784 5.3160 -1.5501 0.5646 -0.3545 -0.4671 0.2862 -2.8701 2.7143 0.2140
-2.4215 5.7033 0.9154 0.7872 2.5483 2.1435 -4.2225 -3.8661 -2.8364 -5.8324 0.5270 -1.3617 -5.7416 -2.0045 -2.4254 -4.6161 4.8844 1.2649 -0.1186 -1.6312 -0.4372 1.7420 1.7330 1.0180 2.6134 -0.9800 0.5444 4.3559 -0.6288 0.5871 -3.2190 -1.2817 -2.0530 -1.8256 2.0932 0.4139 8.0906 -3.5494 1.1972 8.0750 -2.3304 1.8000 6.9883 -3.9531 0.3811 6.8939 -1.3883 1.6165 5.8222 -3.1171 0.1440 -4.2159 2.3148 -0.3898 -4.2751 1.0012 -1.2113 -3.1816 -0.1145 -0.7644 -1.6437 0.7001 -0.4431 1.3604 0.2584 0.5088 -4.4708 -2.3107 -2.3822 -3.3622 4.4706 0.8227 5.6384 -1.7572 0.7929 -0.1272 -0.2342 -0.1062 -3.0936 2.9129 0.2603
-2.7022 5.5699 1.5337 1.0516 2.9224 1.5649 -4.1931 -3.8569 -2.9288 -5.8070 0.5614 -1.5492 -5.7134 -1.9665 -2.5940 -4.6953 5.1198 0.7290 -0.0275 -1.4715 -0.6334 1.8087 1.6718 1.2668 2.6835 -0.9517 0.4219 4.3056 -0.8018 0.9849 -3.3200 -1.4787 -1.6500 -1.8548 2.1883 0.3584 8.1944 -3.5738 1.0047 8.2310 -2.3162 1.5501 6.9883 -4.0618 0.4262 6.9790 -1.4438 1.5352 5.7603 -3.2885 0.3766 -4.2757 2.3026 -0.3383 -4.3811 0.8875 -0.9717 -3.1217 -0.0118 -0.9660 -1.7040 0.6671 -0.2412 1.3919 0.2695 0.5429 -4.4767 -2.3269 -2.3663 -3.4931 4.5059 0.8384 5.6325 -1.8864 0.9327 -0.0994 -0.1602 -0.0987 -3.1618 2.9305 0.2713
-2.8705 5.4389 1.9208 1.3003 3.1710 0.9505 -4.2049 -3.8017 -3.0843 -5.7762 0.6056 -1.6938 -5.7220 -1.9269 -2.6516 -4.7368 5.2423 0.4566 0.0284 -1.3578 -0.7911 1.8707 1.6517 1.3836 2.7579 -0.9398 0.2775 4.3440 -0.8080 1.1054 -3.3843 -1.6557 -1.3225 -1.8753 2.2240 0.3724 8.2290 -3.6480 0.9941 8.3621 -2.2801 1.2416 6.9391 -4.2201 0.7703 7.1129 -1.4057 1.2672 5.6964 -3.4339 0.7914 -4.3527 2.3167 -0.2876 -4.5152 0.7896 -0.6961 -3.1073 0.0678 -1.1672 -1.7667 0.6287 -0.0698 1.4510 0.2852 0.5253 -4.5314 -2.3782 -2.3781 -3.6215 4.5681 0.8961 5.7142 -1.9351 1.0155 -0.0858 -0.1559 -0.1344 -3.2552 2.9574 0.3082
-2.7995 5.6488 1.5286 1.2025 2.9819 1.6316 -4.2794 -3.8747 -2.9560 -5.8471 0.5302 -1.5747 -5.7492 -1.9608 -2.5985 -4.9111 5.1620 0.6730 -0.0228 -1.4017 -0.6000 1.9473 1.6976 1.3174 2.7403 -0.9948 0.4223 4.3951 -0.8081 1.0104 -3.2733 -1.5293 -1.6541 -1.9040 2.2584 0.3697 8.2726 -3.6740 0.9908 8.3346 -2.4055 1.5466 7.0500 -4.1475 0.4144 7.0855 -1.5198 1.5370 5.8287 -3.3469 0.3773 -4.3722 2.3486 -0.3515 -4.4557 0.9102 -0.9858 -3.1682 -0.0174 -0.9821 -1.7250 0.7189 -0.2266 1.4650 0.2765 0.5677 -4.5322 -2.3788 -2.4009 -3.6686 4.6189 0.8254 5.7584 -1.9511 0.9462 -0.0899 -0.1391 -0.0865 -3.2819 2.9974 0.2584
-2.7985 5.6479 1.5293 1.1994 2.9812 1.6309 -4.2828 -3.8738 -2.9577 -5.8473 0.5275 -1.5763 -5.7513 -1.9588 -2.5991 -4.9127 5.1618 0.6728 -0.0244 -1.4005 -0.6003 1.9545 1.6976 1.3200 2.7410 -1.0043 0.4185 4.4009 -0.8013 1.0153 -3.2700 -1.5356 -1.6563 -1.9028 2.2587 0.3704 8.2757 -3.6775 0.9904 8.3367 -2.4074 1.5468 7.0546 -4.1479 0.4155 7.0893 -1.5200 1.5385 5.8302 -3.3467 0.3778 -4.3785 2.3520 -0.3520 -4.4583 0.9134 -0.9855 -3.1737 -0.0153 -0.9832 -1.7249 0.7187 -0.2267 1.4678 0.2775 0.5692 -4.5433 -2.3775 -2.4046 -3.6712 4.6235 0.8271 5.7675 -1.9493 0.9500 -0.0906 -0.1440 -0.0889 -3.2874 3.0002 0.2581
-2.7520 5.6130 1.5733 0.8660 2.5156 2.3970 -4.3028 -3.9280 -2.7912 -5.8577 0.4939 -1.4297 -5.7662 -1.9784 -2.5158 -4.7370 5.2857 0.3783 -0.0884 -1.5146 -0.4235 1.8876 1.6783 1.3292 2.6678 -1.0753 0.5854 4.4011 -0.7231 0.9235 -3.1798 -1.3827 -1.9830 -1.8685 2.2441 0.3367 8.2567 -3.6212 0.9139 8.1996 -2.5282 1.7745 7.1734 -3.8907 0.0241 6.9699 -1.6246 1.7616 5.9582 -3.0605 -0.0413 -4.3263 2.3650 -0.3877 -4.3433 1.0230 -1.2655 -3.2264 -0.0968 -0.7893 -1.6726 0.7594 -0.3754 1.4161 0.2248 0.6590 -4.5221 -2.3730 -2.4072 -3.5739 4.6524 0.7177 5.7697 -1.8664 0.8661 -0.1183 -0.1991 -0.0345 -3.2308 3.0074 0.2037
-2.6745 5.8150 1.1039 0.9683 2.5600 2.4488 -4.3302 -3.9215 -2.8325 -5.8789 0.4880 -1.4682 -5.7906 -2.0017 -2.4710 -4.9271 5.1519 0.7017 -0.1070 -1.4889 -0.3613 1.9413 1.6935 1.3531 2.6768 -1.1020 0.6555 4.4299 -0.7528 0.9185 -3.1795 -1.4155 -1.9373 -1.8924 2.2779 0.3449 8.3092 -3.6411 0.8972 8.3524 -2.3947 1.5042 7.1063 -4.0843 0.2649 7.1089 -1.5020 1.4974 5.8790 -3.2765 0.2232 -4.3626 2.3967 -0.4499 -4.3654 1.0346 -1.2858 -3.2433 -0.0949 -0.7775 -1.6862 0.7713 -0.3496 1.4397 0.2279 0.7013 -4.5443 -2.3928 -2.3936 -3.6365 4.6962 0.6710 5.8050 -1.9095 0.8679 -0.1249 -0.1865 0.0070 -3.2736 3.0518 0.1662
-2.9385 5.7169 1.5073 1.3008 3.0232 1.6746 -4.2907 -3.8821 -2.9559 -5.8626 0.5079 -1.5881 -5.7507 -1.9696 -2.5983 -5.0098 5.1641 0.6374 -0.0178 -1.3542 -0.5765 2.0281 1.7119 1.3453 2.7714 -1.0064 0.4276 4.4424 -0.8163 1.0214 -3.2528 -1.5421 -1.6502 -1.9276 2.3010 0.3776 8.2950 -3.7438 0.9714 8.3653 -2.4752 1.5279 7.0724 -4.1994 0.4034 7.1342 -1.5723 1.5301 5.8440 -3.3792 0.3717 -4.4230 2.3629 -0.3634 -4.4781 0.9179 -0.9896 -3.1751 -0.0070 -0.9790 -1.7286 0.7465 -0.2166 1.5065 0.2951 0.5875 -4.5388 -2.3937 -2.4046 -3.7602 4.6562 0.8074 5.8087 -1.9853 0.9486 -0.0789 -0.1118 -0.0714 -3.3355 3.0347 0.2542
-3.0170 5.7549 1.4939 1.3671 3.0493 1.7025 -4.2907 -3.8889 -2.9538 -5.8718 0.4910 -1.5972 -5.7486 -1.9776 -2.5977 -5.0736 5.1639 0.6135 -0.0105 -1.3245 -0.5603 2.0844 1.7204 1.3639 2.7877 -1.0042 0.4339 4.4702 -0.8216 1.0276 -3.2394 -1.5514 -1.6476 -1.9442 2.3284 0.3821 8.3056 -3.7880 0.9580 8.3811 -2.5185 1.5152 7.0805 -4.2342 0.3940 7.1618 -1.6077 1.5237 5.8523 -3.3984 0.3683 -4.4523 2.3706 -0.3705 -4.4936 0.9224 -0.9923 -3.1786 -0.0003 -0.9765 -1.7306 0.7659 -0.2094 1.5320 0.3094 0.6007 -4.5380 -2.4003 -2.4036 -3.8223 4.6804 0.7946 5.8326 -2.0075 0.9473 -0.0715 -0.0912 -0.0603 -3.3725 3.0576 0.2501
-2.9864 5.7984 1.3915 1.1621 2.6950 2.4158 -4.3125 -3.9138 -2.8905 -5.9167 0.4350 -1.4474 -5.7910 -2.0252 -2.4657 -4.9908 5.2746 0.3332 -0.0667 -1.3891 -0.3914 2.0801 1.7182 1.3733 2.7325 -1.0861 0.6185 4.4768 -0.8103 1.0077 -3.1669 -1.4518 -1.8785 -1.9274 2.3540 0.3255 8.3418 -3.7393 0.8410 8.4035 -2.4863 1.4447 7.1249 -4.1744 0.2564 7.1749 -1.5868 1.4856 5.8853 -3.3513 0.2641 -4.4473 2.3807 -0.3912 -4.4155 1.0253 -1.2438 -3.2474 -0.0869 -0.7574 -1.6982 0.8097 -0.3113 1.5079 0.2753 0.6948 -4.5401 -2.4064 -2.3934 -3.7817 4.7476 0.6393 5.8506 -1.9798 0.8938 -0.0935 -0.1166 0.0051 -3.3583 3.0903 0.1804
-3.3670 5.8991 1.4174 1.7204 3.1769 1.8437 -4.2781 -3.9248 -2.9360 -5.9079 0.4329 -1.6268 -5.7346 -2.0185 -2.5906 -5.3634 5.1852 0.5108 0.0153 -1.1659 -0.4789 2.2823 1.7799 1.4361 2.8596 -0.9690 0.4724 4.5663 -0.8990 1.0233 -3.1956 -1.5536 -1.6215 -2.0663 2.4510 0.3849 8.3532 -3.9741 0.9056 8.4545 -2.7026 1.4640 7.1213 -4.3878 0.3574 7.2666 -1.7648 1.4898 5.8905 -3.5065 0.3466 -4.5687 2.3838 -0.4081 -4.5387 0.9179 -1.0070 -3.1679 0.0162 -0.9619 -1.7373 0.8633 -0.1731 1.6304 0.3892 0.6599 -4.5005 -2.4315 -2.3846 -4.0751 4.7530 0.7255 5.9005 -2.1227 0.9236 -0.0334 0.0413 0.0069 -3.5267 3.1313 0.2205
-3.3630 5.8982 1.4184 1.7173 3.1760 1.8427 -4.2780 -3.9257 -2.9367 -5.9071 0.4283 -1.6287 -5.7355 -2.0163 -2.5903 -5.3656 5.1830 0.5093 0.0131 -1.1652 -0.4793 2.2901 1.7770 1.4375 2.8600 -0.9754 0.4699 4.5785 -0.8856 1.0327 -3.1937 -1.5570 -1.6225 -2.0601 2.4558 0.3888 8.3543 -3.9785 0.9043 8.4558 -2.7076 1.4625 7.1219 -4.3920 0.3559 7.2696 -1.7671 1.4900 5.8907 -3.5096 0.3454 -4.5716 2.3860 -0.4082 -4.5415 0.9205 -1.0069 -3.1734 0.0199 -0.9621 -1.7383 0.8651 -0.1727 1.6357 0.3935 0.6634 -4.5090 -2.4318 -2.3876 -4.0901 4.7600 0.7239 5.9102 -2.1210 0.9275 -0.0331 0.0348 0.0043 -3.5374 3.1345 0.2186
-3.5155 5.7028 1.8745 2.0922 3.5010 0.9579 -4.2747 -3.9353 -2.9388 -5.9752 0.3311 -1.4112 -5.7594 -2.0390 -2.5227 -5.4127 5.1896 0.5134 0.0781 -1.0490 -0.7148 2.2727 1.8140 1.4354 2.9446 -0.8687 0.2598 4.5426 -0.9519 1.1786 -3.1484 -1.3905 -1.9880 -2.0667 2.4738 0.3742 8.3513 -4.0378 1.0092 8.4380 -2.7705 1.6047 7.1288 -4.4506 0.4370 7.2393 -1.8309 1.6438 5.8941 -3.5672 0.4382 -4.6443 2.3029 -0.2133 -4.5113 1.0055 -1.1748 -3.2491 -0.0646 -0.7821 -1.7317 0.8965 -0.2391 1.6870 0.4520 0.5489 -4.4986 -2.4092 -2.4624 -4.1789 4.6887 0.9169 5.8995 -2.1730 1.0466 0.0044 0.0896 -0.1407 -3.6062 3.0909 0.3491
-3.3668 5.9248 1.3962 1.4654 2.6952 2.7785 -4.3213 -3.9804 -2.8067 -5.9466 0.3924 -1.5088 -5.7834 -2.0531 -2.4568 -5.2295 5.3717 0.0362 -0.0677 -1.2521 -0.2453 2.2513 1.7595 1.5353 2.7984 -1.0696 0.6883 4.5999 -0.8638 0.9778 -3.1480 -1.4590 -1.8785 -2.0222 2.5080 0.2653 8.4171 -3.9129 0.7548 8.4944 -2.6673 1.3931 7.2042 -4.3127 0.1501 7.2915 -1.7422 1.4471 5.9663 -3.4410 0.1655 -4.5702 2.4053 -0.4319 -4.4626 1.0258 -1.2739 -3.2477 -0.0482 -0.7844 -1.7168 0.8952 -0.2530 1.5968 0.3298 0.8203 -4.5222 -2.4476 -2.3629 -4.0359 4.8530 0.5171 5.9478 -2.0850 0.8459 -0.0730 -0.0154 0.1186 -3.5191 3.1896 0.1123
-3.4610 5.9455 1.3781 2.0232 3.3449 1.7084 -4.2552 -3.9191 -3.0064 -5.9262 0.4242 -1.6617 -5.7433 -2.0266 -2.5831 -5.4890 5.1987 0.4588 0.1454 -0.9393 -0.7901 2.0936 1.5867 1.9657 2.9562 -0.8362 0.3628 4.5285 -1.0563 1.2993 -3.2167 -1.5226 -1.7254 -2.0993 2.5077 0.3511 8.4361 -4.0014 0.7852 8.4807 -2.8375 1.5373 7.2337 -4.3585 0.1445 7.2566 -1.9329 1.6797 5.9707 -3.5118 0.2461 -4.6136 2.4094 -0.4642 -4.6130 0.8639 -0.8752 -3.1962 0.0304 -0.9822 -1.7826 0.8437 -0.0681 1.6339 0.3719 0.8138 -4.5027 -2.4285 -2.4318 -4.1822 4.7935 0.6846 5.9270 -2.2128 1.0234 -0.0057 0.0919 -0.0295 -3.5990 3.1710 0.1789
-3.3570 5.9588 1.3217 1.5362 2.6876 2.8818 -4.3313 -4.0053 -2.7630 -5.9525 0.3960 -1.5234 -5.7889 -2.0567 -2.4531 -5.2699 5.3632 0.0471 -0.0791 -1.2594 -0.1979 2.2377 1.7848 1.5292 2.8019 -1.0660 0.7429 4.6261 -0.8466 0.9298 -3.1755 -1.4435 -1.9225 -2.0286 2.5166 0.2525 8.4369 -3.9349 0.7572 8.5388 -2.6458 1.2996 7.1978 -4.3704 0.2412 7.3398 -1.7059 1.3398 5.9624 -3.4865 0.2431 -4.5853 2.4067 -0.4353 -4.4810 1.0296 -1.2771 -3.2683 -0.0457 -0.7996 -1.7264 0.8928 -0.2522 1.5990 0.3309 0.8415 -4.5346 -2.4541 -2.3628 -4.0533 4.8670 0.4938 5.9729 -2.0838 0.8287 -0.0822 -0.0264 0.1379 -3.5354 3.1973 0.0991
-3.3661 5.8918 1.4376 1.5265 2.8739 2.4669 -4.2631 -3.9028 -2.9890 -5.8518 0.4964 -1.7977 -5.7305 -2.0046 -2.6100 -5.2771 5.3022 0.2092 -0.0472 -1.2359 -0.3038 2.3081 1.8016 1.3783 2.8161 -1.0387 0.6111 4.6026 -0.8535 0.9633 -3.2997 -1.6596 -1.3552 -2.0676 2.4497 0.4092 8.3814 -3.9434 0.8327 8.4188 -2.7685 1.5782 7.2154 -4.2649 0.0823 7.2323 -1.8252 1.6092 5.9912 -3.3728 0.0555 -4.5222 2.4500 -0.5616 -4.5980 0.8549 -0.8212 -3.1103 0.0979 -1.1570 -1.7644 0.8331 -0.0939 1.6223 0.3721 0.7213 -4.5249 -2.4485 -2.3445 -4.0512 4.8143 0.5959 5.9368 -2.0869 0.8545 -0.0648 -0.0077 0.1021 -3.5124 3.1752 0.1266
-3.2261 6.0883 0.9448 1.5349 2.7474 2.7667 -4.2825 -3.9436 -2.9153 -5.8279 0.5274 -1.8846 -5.7074 -1.9703 -2.6903 -5.3875 5.2189 0.4444 -0.0716 -1.2527 -0.2281 2.2568 1.7861 1.4916 2.8016 -1.0623 0.7143 4.6084 -0.8632 0.9669 -3.3641 -1.6819 -1.2908 -2.0800 2.4559 0.4122 8.4260 -3.9255 0.7556 8.5235 -2.6476 1.3201 7.1923 -4.3558 0.2252 7.3205 -1.7194 1.3721 5.9527 -3.4838 0.2435 -4.5135 2.4752 -0.6287 -4.6103 0.8738 -0.8566 -3.1339 0.0880 -1.1499 -1.7818 0.8306 -0.0787 1.6017 0.3395 0.8172 -4.5371 -2.4625 -2.3317 -4.0447 4.8590 0.5020 5.9555 -2.0912 0.8445 -0.0894 -0.0343 0.1612 -3.5160 3.2039 0.0722
-3.5738 5.9861 1.3795 2.0071 3.2554 1.9582 -4.3166 -3.9504 -2.9515 -5.9524 0.4137 -1.6493 -5.7638 -2.0168 -2.5954 -5.5572 5.1992 0.4480 0.0233 -1.1026 -0.4483 2.3316 1.8446 1.4748 2.9257 -0.9377 0.5074 4.6662 -0.9435 1.0372 -3.2552 -1.5497 -1.6354 -2.1262 2.5204 0.3908 8.4548 -4.0832 0.8989 8.5701 -2.8208 1.4556 7.2138 -4.5029 0.3461 7.3785 -1.8628 1.4869 5.9856 -3.6128 0.3382 -4.6611 2.4069 -0.4312 -4.5872 0.9381 -1.0153 -3.2277 0.0357 -0.9722 -1.7528 0.9128 -0.1590 1.6919 0.4316 0.6956 -4.5456 -2.4390 -2.3973 -4.2605 4.8114 0.6844 6.0012 -2.1958 0.9282 -0.0187 0.0782 0.0266 -3.6510 3.1840 0.1986
-3.3787 6.0861 1.0281 1.7557 2.9108 2.6369 -4.2352 -3.8944 -3.0695 -5.9011 0.4497 -1.7349 -5.7292 -2.0127 -2.6208 -5.4704 5.2367 0.3579 -0.0844 -1.2605 -0.0535 2.3313 1.9197 1.2940 2.8309 -1.0303 0.7823 4.6836 -0.8339 0.8304 -3.3508 -1.6747 -1.3317 -2.1492 2.4559 0.4888 8.4198 -4.0417 0.8411 8.5447 -2.7595 1.3460 7.1853 -4.4457 0.3040 7.3716 -1.7775 1.3322 5.9699 -3.5245 0.2534 -4.5745 2.4647 -0.6078 -4.6394 0.8537 -0.8090 -3.1426 0.0975 -1.1459 -1.7570 0.8825 -0.1452 1.6524 0.3960 0.7781 -4.5243 -2.4555 -2.3679 -4.1467 4.8656 0.5089 6.0003 -2.1150 0.8034 -0.0758 0.0045 0.1934 -3.5862 3.2024 0.1072
-3.6146 5.9785 1.4076 2.1584 3.4072 1.6225 -4.3317 -3.9805 -2.9010 -5.9723 0.3897 -1.6021 -5.7752 -2.0307 -2.5641 -5.6090 5.1941 0.4473 0.0883 -0.9929 -0.6691 2.2461 1.6782 1.8535 2.9718 -0.8893 0.3773 4.6226 -1.0357 1.2379 -3.1878 -1.4410 -1.8769 -2.1151 2.5679 0.3196 8.4876 -4.0803 0.8179 8.6004 -2.8227 1.4103 7.2357 -4.5059 0.3219 7.3837 -1.8934 1.5290 5.9816 -3.6477 0.4013 -4.7053 2.3733 -0.3412 -4.5189 1.0439 -1.2516 -3.3029 -0.0432 -0.7588 -1.7770 0.8955 -0.0817 1.6762 0.4043 0.7914 -4.5398 -2.4253 -2.4312 -4.3053 4.8130 0.7026 5.9944 -2.2447 1.0085 -0.0085 0.1019 0.0083 -3.6835 3.1859 0.2210
-3.6209 5.9711 1.4227 2.1988 3.4497 1.4963 -4.2949 -3.9321 -3.0272 -5.9648 0.3984 -1.6244 -5.7489 -1.9910 -2.6583 -5.6164 5.1835 0.4685 0.1040 -0.9680 -0.7201 2.2743 1.7197 1.7915 2.9785 -0.8804 0.3623 4.6341 -1.0186 1.2242 -3.3381 -1.6371 -1.4181 -2.1199 2.5601 0.3353 8.4811 -4.0926 0.8390 8.6346 -2.7825 1.2905 7.1868 -4.5729 0.4780 7.4241 -1.8457 1.4031 5.9351 -3.7082 0.5606 -4.7069 2.3710 -0.3332 -4.5133 1.0497 -1.2717 -3.2476 0.0344 -0.9524 -1.8025 0.8616 -0.0020 1.6939 0.4260 0.7474 -4.5609 -2.4460 -2.3877 -4.3159 4.8027 0.7278 5.9983 -2.2417 1.0166 -0.0010 0.1093 -0.0106 -3.6916 3.1795 0.2422
-3.5579 6.0074 1.3277 1.8171 2.9472 2.6011 -4.2918 -3.9207 -3.0242 -5.9218 0.4515 -1.7434 -5.7517 -2.0016 -2.6294 -5.4678 5.3164 0.1469 -0.0650 -1.2048 -0.1935 2.3816 1.9142 1.3080 2.8650 -1.0281 0.7042 4.7054 -0.8879 0.9166 -3.3533 -1.6534 -1.3609 -2.1447 2.5035 0.4403 8.4742 -4.0607 0.8420 8.5751 -2.8150 1.4466 7.2564 -4.4467 0.2203 7.3894 -1.8470 1.4581 6.0350 -3.5461 0.1865 -4.6183 2.4633 -0.5700 -4.6581 0.8537 -0.7829 -3.1698 0.1104 -1.1531 -1.7602 0.9043 -0.1379 1.6841 0.4218 0.7376 -4.5592 -2.4518 -2.3642 -4.2154 4.8735 0.5335 6.0299 -2.1600 0.8426 -0.0514 0.0359 0.1346 -3.6267 3.2208 0.1127
-3.7420 6.1310 1.1581 1.9092 3.1430 2.7060 -4.4884 -3.9487 -2.9891 -6.0733 0.3751 -1.5153 -5.9164 -2.0234 -2.5182 -5.6922 5.2812 0.2339 -0.0664 -1.1329 -0.2031 2.4618 1.9420 1.4063 2.9199 -1.0186 0.8397 4.8331 -0.9528 0.8448 -3.2744 -1.4626 -1.8744 -2.1707 2.6034 0.2958 8.6743 -4.2046 0.9017 8.7605 -2.9575 1.4631 7.4696 -4.5756 0.2876 7.6041 -1.9715 1.4414 6.2421 -3.6959 0.2054 -4.7648 2.4212 -0.4210 -4.6168 1.0391 -1.2201 -3.3404 -0.0370 -0.7650 -1.7615 0.9643 -0.2237 1.7215 0.4700 0.8064 -4.6693 -2.4231 -2.4403 -4.3929 4.9229 0.5077 6.1448 -2.2434 0.8355 -0.0340 0.0985 0.1253 -3.7373 3.2560 0.1115
-3.8516 6.0840 1.3289 2.1401 3.4503 2.0792 -4.4975 -3.9435 -3.0053 -6.0404 0.4285 -1.6748 -5.8943 -1.9785 -2.6229 -5.7797 5.2185 0.3809 0.0041 -1.0366 -0.4263 2.4596 1.9142 1.5435 3.0173 -0.9186 0.5460 4.8257 -1.0140 1.0610 -3.3521 -1.5575 -1.6700 -2.2106 2.5835 0.3880 8.6921 -4.2486 0.9119 8.8007 -2.9766 1.4699 7.4492 -4.6546 0.3635 7.6151 -2.0042 1.5076 6.2109 -3.7806 0.3444 -4.7812 2.4407 -0.4589 -4.6955 0.9671 -1.0404 -3.2861 0.0617 -0.9819 -1.7944 0.9525 -0.1571 1.7533 0.4974 0.7426 -4.6907 -2.4255 -2.4383 -4.4739 4.8812 0.6420 6.1790 -2.3185 0.9377 -0.0109 0.1338 0.0519 -3.7880 3.2441 0.1770
-3.9530 6.1258 1.3087 2.2391 3.4672 2.1124 -4.4850 -3.9544 -3.0011 -6.0439 0.4169 -1.6806 -5.8886 -1.9827 -2.6201 -5.8687 5.2172 0.3478 0.0036 -1.0129 -0.4156 2.5193 1.9126 1.5588 3.0328 -0.9390 0.5431 4.8586 -1.0248 1.0673 -3.3596 -1.5517 -1.6678 -2.2343 2.6183 0.3924 8.7110 -4.2981 0.9013 8.8258 -3.0257 1.4599 7.4672 -4.6979 0.3556 7.6466 -2.0443 1.5022 6.2293 -3.8034 0.3443 -4.8145 2.4532 -0.4662 -4.7060 0.9764 -1.0404 -3.2956 0.0824 -0.9760 -1.7978 0.9867 -0.1450 1.7690 0.5085 0.7513 -4.6879 -2.4248 -2.4340 -4.5496 4.9028 0.6227 6.2185 -2.3485 0.9395 -0.0044 0.1708 0.0689 -3.8320 3.2693 0.1706
-3.9496 6.1283 1.3033 2.1713 3.3733 2.3288 -4.4892 -3.9588 -2.9867 -6.0694 0.3822 -1.6006 -5.8996 -1.9953 -2.5856 -5.8692 5.2156 0.3513 -0.0490 -1.0811 -0.2361 2.6018 2.0222 1.2777 2.9854 -1.0004 0.7003 4.9091 -0.9555 0.8996 -3.3339 -1.5156 -1.7552 -2.2356 2.6148 0.4011 8.6878 -4.3288 0.9740 8.7816 -3.0861 1.6015 7.4929 -4.6641 0.2774 7.6265 -2.0715 1.5713 6.2750 -3.7407 0.1934 -4.8293 2.4326 -0.4119 -4.6579 1.0383 -1.2029 -3.3438 0.0218 -0.8207 -1.7532 1.0484 -0.2992 1.7858 0.5278 0.7018 -4.6912 -2.4257 -2.4339 -4.5486 4.9031 0.6236 6.2441 -2.3181 0.8709 -0.0039 0.1696 0.0697 -3.8379 3.2637 0.1874
-3.8611 6.2477 1.0312 2.0250 3.0676 2.9028 -4.5040 -3.9434 -3.0195 -6.0898 0.3744 -1.5557 -5.9385 -2.0100 -2.5226 -5.8362 5.3045 0.1323 -0.1073 -1.1304 -0.1222 2.5311 1.9372 1.5491 2.9628 -1.0577 0.7739 4.8792 -1.0173 1.0191 -3.3091 -1.4746 -1.8503 -2.2138 2.6672 0.2964 8.7832 -4.2431 0.7846 8.8844 -2.9849 1.4032 7.5472 -4.6424 0.1954 7.6821 -2.0181 1.4638 6.3004 -3.7633 0.2017 -4.8235 2.4672 -0.4789 -4.6562 1.0722 -1.2715 -3.3727 0.0098 -0.7709 -1.8011 1.0024 -0.1747 1.7395 0.4523 0.8775 -4.7029 -2.4203 -2.4502 -4.5079 4.9930 0.4233 6.2630 -2.3298 0.8730 -0.0546 0.1191 0.2139 -3.8192 3.3207 0.0755
-3.9795 6.0880 1.4074 2.0811 3.2223 2.6311 -4.5048 -3.9698 -2.9574 -6.0616 0.3946 -1.6256 -5.9250 -2.0191 -2.5157 -5.7906 5.3234 0.0777 -0.0952 -1.1318 -0.1088 2.5693 1.9842 1.3932 2.9701 -1.0288 0.7482 4.8896 -0.9788 0.9708 -3.2933 -1.4644 -1.8740 -2.2244 2.6333 0.3606 8.7246 -4.2870 0.8593 8.7597 -3.1302 1.6543 7.5758 -4.5519 0.0452 7.5900 -2.1340 1.6756 6.3539 -3.6306 -0.0061 -4.8168 2.4546 -0.4649 -4.6232 1.0799 -1.3034 -3.3517 0.0176 -0.8056 -1.7693 1.0262 -0.2459 1.7588 0.4846 0.7983 -4.6945 -2.4261 -2.4349 -4.5316 4.9345 0.5489 6.2542 -2.3082 0.8645 -0.0367 0.1316 0.1667 -3.8288 3.2861 0.1401
-3.9576 6.2337 1.1148 2.1026 3.1128 2.8627 -4.4969 -3.9402 -3.0309 -6.1061 0.3618 -1.5334 -5.9344 -2.0074 -2.5332 -5.8545 5.3238 0.0625 -0.1190 -1.1258 -0.0877 2.5731 1.9517 1.5190 2.9787 -1.0539 0.7587 4.8951 -1.0304 1.0240 -3.3126 -1.4833 -1.8199 -2.2347 2.6833 0.3095 8.7938 -4.2737 0.7857 8.8955 -3.0180 1.4026 7.5574 -4.6676 0.1965 7.6994 -2.0434 1.4639 6.3096 -3.7813 0.2066 -4.8429 2.4704 -0.4864 -4.6653 1.0762 -1.2819 -3.3707 0.0201 -0.7736 -1.7977 1.0280 -0.1869 1.7554 0.4653 0.8689 -4.6986 -2.4214 -2.4492 -4.5546 4.9988 0.4255 6.2810 -2.3467 0.8779 -0.0517 0.1374 0.2260 -3.8444 3.3300 0.0787
-3.9905 6.1900 1.2279 2.1309 3.1276 2.8353 -4.5185 -3.9562 -2.9973 -6.0518 0.4478 -1.7590 -5.9674 -2.0242 -2.4763 -5.8597 5.3233 0.0783 -0.1354 -1.1490 -0.0149 2.5834 1.9710 1.4787 2.9945 -1.0400 0.7279 4.9228 -0.9965 0.9516 -3.3818 -1.5438 -1.6950 -2.2475 2.6665 0.3450 8.8026 -4.2847 0.8153 8.8944 -3.0406 1.4404 7.5814 -4.6596 0.1861 7.7077 -2.0504 1.4739 6.3416 -3.7521 0.1609 -4.8325 2.4897 -0.5342 -4.6266 1.1221 -1.3832 -3.3902 0.0273 -0.7979 -1.8023 1.0238 -0.1954 1.7610 0.4599 0.8557 -4.7396 -2.4483 -2.3809 -4.5715 4.9816 0.4775 6.3061 -2.3316 0.8462 -0.0594 0.1207 0.2403 -3.8517 3.3257 0.0933
-3.9776 6.2020 1.1980 2.1041 3.0967 2.8876 -4.5274 -3.9679 -2.9680 -5.9863 0.5096 -1.9217 -5.9535 -2.0043 -2.5226 -5.8398 5.3410 0.0336 -0.1356 -1.1494 -0.0296 2.5702 1.9446 1.5278 2.9760 -1.0648 0.7826 4.9017 -1.0258 1.0120 -3.4491 -1.6243 -1.4759 -2.2556 2.6546 0.3742 8.8176 -4.2468 0.7488 8.9110 -3.0022 1.3725 7.5828 -4.6436 0.1546 7.7109 -2.0316 1.4408 6.3313 -3.7598 0.1700 -4.8273 2.4937 -0.5427 -4.6593 1.0807 -1.2909 -3.2778 0.1349 -1.0819 -1.8333 0.9859 -0.0917 1.7491 0.4466 0.8929 -4.7517 -2.4610 -2.3403 -4.5588 4.9923 0.4503 6.2930 -2.3381 0.8594 -0.0692 0.1090 0.2717 -3.8452 3.3281 0.0884
-3.9875 6.2332 1.1361 2.1463 3.0568 2.9560 -4.5227 -3.9076 -3.1206 -6.0235 0.4980 -1.8760 -5.9600 -1.9752 -2.5943 -5.8803 5.3557 -0.0120 -0.1254 -1.1317 -0.0823 2.5809 1.9716 1.5397 2.9966 -1.0684 0.7582 4.9215 -1.0512 1.0429 -3.5031 -1.6448 -1.4214 -2.2934 2.6483 0.4290 8.8689 -4.2673 0.7626 8.9606 -3.0270 1.3851 7.6325 -4.6669 0.1737 7.7488 -2.0549 1.4603 6.3711 -3.7848 0.1996 -4.8064 2.5591 -0.6881 -4.8236 0.9363 -0.8692 -3.2861 0.1635 -1.1324 -1.8478 0.9916 -0.0873 1.7694 0.4568 0.8827 -4.7676 -2.4388 -2.3979 -4.5802 5.0241 0.3943 6.3304 -2.3594 0.8784 -0.0628 0.1212 0.2544 -3.8568 3.3619 0.0285

$$$$
CHEMBL167936
 OpenBabel02201516203D

 35 37  0  0  1  0  0  0  0  0999 V2000
    1.6335    1.2957    1.9295 O   0  0  0  0  0
    0.1574    1.9033   -0.8750 C   0  0  0  0  0
    4.8994   -4.3369   -3.9084 C   0  0  0  0  0
    5.9771   -0.8193   -1.3060 N   0  0  0  0  0
    4.9499   -1.9875   -3.6904 O   0  0  0  0  0
    3.6860    1.7673    2.1672 O   0  0  0  0  0
    1.1077   -3.7378   -1.1517 O   0  0  0  0  0
   -0.0208    0.3846   -0.8210 C   0  0  0  0  0
    0.8740   -0.2716   -1.8744 C   0  0  0  0  0
   -0.4690   -2.2402   -2.7460 C   0  0  0  0  0
    0.0765   -2.5654   -4.1379 C   0  0  0  0  0
   -4.1849   -4.6472   -7.4394 C   0  0  0  0  0
    4.0798   -3.0605   -1.9545 N   0  0  0  0  0
    2.1690   -0.7616    0.2124 O   0  0  0  0  0
   -7.8128   -4.7511   -5.1866 C   0  0  0  0  0
   -6.9643   -5.8424   -5.1812 C   0  0  0  0  0
   -7.4871   -3.6260   -5.9207 C   0  0  0  0  0
   -5.7903   -5.8087   -5.9101 C   0  0  0  0  0
   -6.3109   -3.5907   -6.6461 C   0  0  0  0  0
   -1.2863   -4.4673   -5.0272 C   0  0  0  0  0
   -1.8067   -2.2467   -5.7558 C   0  0  0  0  0
   -2.3058   -4.9652   -5.8168 C   0  0  0  0  0
   -2.8234   -2.7451   -6.5487 C   0  0  0  0  0
    4.4483   -0.2267    0.4850 C   0  0  0  0  0
    4.9092   -1.3257   -0.4335 C   0  0  0  0  0
    3.7317   -1.8017   -1.2909 C   0  0  0  0  0
    2.5234   -2.0190   -0.3700 C   0  0  0  0  0
    0.6114   -1.7124   -1.9091 N   0  0  0  0  0
    4.6454   -3.0436   -3.1777 C   0  0  0  0  0
    2.8084    1.0770    1.6667 C   0  0  0  0  0
   -1.0349   -3.1083   -4.9988 C   0  0  0  0  0
   -5.4649   -4.6839   -6.6448 C   0  0  0  0  0
   -3.0742   -4.1042   -6.5778 C   0  0  0  0  0
    1.3638   -2.5525   -1.1711 C   0  0  0  0  0
    3.1658   -0.0160    0.7490 C   0  0  0  0  0
  1 30  1  0  0  0
  2  8  1  0  0  0
  3 29  1  0  0  0
  4 25  1  0  0  0
  5 29  2  0  0  0
  6 30  2  0  0  0
  7 34  2  0  0  0
  8  9  1  0  0  0
  9 28  1  0  0  0
 10 11  1  0  0  0
 10 28  1  0  0  0
 11 31  1  0  0  0
 12 32  1  0  0  0
 12 33  1  0  0  0
 13 26  1  0  0  0
 13 29  1  0  0  0
 14 27  1  0  0  0
 14 35  1  0  0  0
 15 16  1  0  0  0
 15 17  2  0  0  0
 16 18  2  0  0  0
 17 19  1  0  0  0
 18 32  1  0  0  0
 19 32  2  0  0  0
 20 22  2  0  0  0
 20 31  1  0  0  0
 21 23  1  0  0  0
 21 31  2  0  0  0
 22 33  1  0  0  0
 23 33  2  0  0  0
 24 25  1  0  0  0
 24 35  2  0  0  0
 25 26  1  0  0  0
 26 27  1  0  0  0
 27 34  1  0  0  0
 28 34  1  0  0  0
 30 35  1  0  0  0
M  CHG  1  30  -1
M  END

>  <MOLID> (CHEMBL167936)
CHEMBL167936

>  <SMILES_CANONICAL> (CHEMBL167936)
CCCN(C(=O)[C@@H]1OC(=C[C@@H]([C@H]1NC(=O)C)N)[C-](=O)O)CCc1ccc(cc1)Cc1ccccc1	CHEMBL167936

>  <FINGERPRINT> (CHEMBL167936)
0000000010000011000000000000000010001001000000000111011000000000000000000001000000000001000000011000000000000001000001110000000110000000000010000000000010000001000000000000000000000010000000000000000000001000000000011000000000111001101000000000110000000100000000010010000000000001100000000000000000011000100010011110100010001000001000000000000001000000010000000000001111011010000000001000110000000010100000000000001000000000000010000000000000000000000000100000100000010100000010000011100000001001100100000000100000110100001000000000000000000100100000100000000000000001010000010100000011000001010000000001100000000000000000001110001000000001000000000000000001000000001000000011100000101010000011111000000000010111000000001000000000000000100010110101000000000000000111000000000000000000000101000000000010100000100000000000110000000000000000001100000001000000000000001101000000000000000000010010000100001100000000000100001010000000000000000000011000000100000100110000110000000100000000000000000000000000001000000110011100000001

>  <MACCS166> (CHEMBL167936)
000000000000000000000000000000000000000000000000110001001000000000000001000100110001110000010010111100000001011001101101011010011010100111111100111111111111111110111000

>  <OB_MW> (CHEMBL167936)
479.242

>  <OB_logP> (CHEMBL167936)
3.349

>  <OB_PSA> (CHEMBL167936)
121.96

>  <OB_MR> (CHEMBL167936)
132.426

>  <OB_ATOMIC_CHARGES> (CHEMBL167936)
-0.4581884291 0.0018132375 0.0964256898 -0.1261456494 -0.2733276741 -0.4581884291 -0.2709136723 0.0215059286 0.09352025 0.098176811 0.0478356819 0.0526083934 -0.2010738857 -0.4974426223 -1.97702e-05 -0.0003122794 -0.0003122794 -0.0039361583 -0.0039361583 -0.0045234187 -0.0045234187 -0.0042579994 -0.0042579994 -7.8911e-06 0.1379744131 0.1655752895 0.2589144159 -0.2762431725 0.2419942481 0.1087295362 -0.0204873236 -0.0177876783 -0.017807424 0.2675781537 0.0510412847

>  <MCT_HBD> (CHEMBL167936)
3

>  <MCT_HBA> (CHEMBL167936)
8

>  <ENSEMBLE_TOTAL> (CHEMBL167936)
50

>  <ENSEMBLE_RMSD> (CHEMBL167936)
0.124 1.146 1.564 1.680 1.843 1.844 1.963 2.061 2.433 2.505 2.507 2.718 2.979 2.985 2.988 2.994 3.003 3.005 3.006 3.007 3.008 3.008 3.010 3.011 3.012 3.013 3.013 3.014 3.014 3.021 3.022 3.025 3.043 3.044 3.045 3.049 3.051 3.051 3.052 3.055 3.073 3.073 3.076 3.077 3.079 3.080 3.083 3.085 3.116 3.350

>  <ENSEMBLE_COORDS> (CHEMBL167936)
1.6185 3.6310 4.8399 0.0660 4.2168 2.0958 4.8451 -2.1185 -0.9676 5.9629 1.2966 1.7046 5.2037 0.1826 -0.6709 3.7358 4.0987 5.0327 1.1364 -1.2938 1.5557 -0.0528 2.6473 2.1307 0.8044 2.0354 1.0400 -0.5321 0.1568 0.1816 -0.0507 -0.1469 -1.2254 -4.2270 -2.3394 -4.5317 4.0069 -0.7788 1.0201 2.1937 1.5313 3.0826 -7.8605 -2.5887 -2.3561 -6.9651 -3.6085 -2.3518 -7.5677 -1.4597 -3.0826 -5.8158 -3.5079 -3.0490 -6.3864 -1.3751 -3.7940 -1.3459 -2.0652 -2.2022 -1.9388 0.0713 -2.7727 -2.3452 -2.5893 -2.9977 -2.9412 -0.4600 -3.5566 4.4525 2.0726 3.3423 4.8420 0.9464 2.4823 3.7147 0.5501 1.5565 2.5509 0.3681 2.4448 0.5615 0.6960 0.9711 4.7101 -0.7959 -0.2302 2.8663 3.3949 4.5452 -1.1497 -0.7172 -2.0895 -5.5191 -2.4059 -3.7637 -3.1446 -1.7869 -3.6731 1.3633 -0.1479 1.6597 3.2079 2.2897 3.6290
2.3209 3.5975 5.1837 -0.0367 4.3079 2.9090 5.0478 -2.3226 -1.0833 6.5112 1.1273 1.8047 6.1948 -1.6135 0.9512 4.3523 4.2713 4.8915 1.3563 -1.0928 1.6262 0.4095 3.4294 1.6717 0.1432 2.0357 1.9694 -0.4227 0.6618 0.1649 -1.5173 -0.2912 0.2631 -4.2874 -1.9767 -4.6763 4.3234 -0.1549 0.3449 2.6488 1.5990 2.9142 -8.1510 -3.5748 -3.8157 -7.0320 -4.4118 -3.7904 -7.9942 -2.2306 -4.1263 -5.7086 -3.8980 -4.0850 -6.7027 -1.6846 -4.4140 -2.0162 -1.9241 -1.5447 -3.1714 0.1929 -1.6506 -2.6851 -2.3521 -2.7535 -3.8297 -0.2210 -2.8497 4.9631 2.3231 2.8918 5.2217 1.4398 1.7010 4.2028 0.4184 1.6812 2.9711 1.0194 1.7467 0.2702 1.0372 1.2408 5.2073 -1.3383 0.1912 3.4564 3.5054 4.5239 -2.1818 -0.6368 -1.0036 -5.5172 -2.5002 -4.3375 -3.6275 -1.5308 -3.4179 1.6055 0.2924 1.4569 3.6750 2.4964 3.4205
2.0516 3.8794 5.1081 -0.0825 4.3744 2.3601 6.3884 -1.0158 -1.5043 6.8067 1.2836 2.6098 6.9764 -0.9544 0.8299 3.8293 2.9729 6.1362 2.0828 -0.8628 0.4872 0.5564 3.4792 1.3107 0.2647 2.0164 1.7017 -0.5579 0.1597 0.4791 -0.6939 -0.0326 -0.9922 -5.2914 -3.4317 -2.9258 5.0869 0.5578 0.2924 2.7552 1.4811 2.9158 -8.7557 -2.3530 -5.2446 -8.8575 -3.1701 -4.1214 -7.4978 -1.8699 -5.6290 -7.6971 -3.5286 -3.3470 -6.3271 -2.2052 -4.9151 -1.7914 -2.2176 -1.8134 -3.2204 -0.2930 -1.6370 -2.8993 -3.0151 -2.2739 -4.3597 -1.0975 -2.0923 4.9641 2.3060 3.4411 5.5050 1.7272 2.1992 4.6111 0.6711 1.6745 3.2461 1.2601 1.6504 0.5526 0.9452 1.0292 6.1832 -0.4980 -0.0047 3.1472 3.0326 5.0403 -1.9299 -0.8570 -1.4455 -6.3808 -2.9834 -3.6759 -4.2292 -2.4681 -2.4697 1.9617 0.4105 1.0388 3.6019 2.2964 3.7872
2.1773 3.4563 5.1139 -0.4789 3.7650 3.0754 5.1016 -1.8761 -1.4584 6.2083 1.9786 1.0828 6.4036 -0.7081 0.1316 4.0077 4.4468 4.7000 1.7130 -1.2581 1.4292 -0.0759 2.2645 2.8652 0.2266 1.8320 1.6896 -0.5450 0.1755 0.3182 -1.1214 -1.0313 0.3950 -4.6354 -3.4679 -3.3267 4.1558 0.1576 0.0467 2.5973 1.5328 2.8771 -7.1591 -0.8200 -5.4600 -6.0337 -1.1795 -5.8315 -7.6499 -1.3794 -4.2089 -5.2346 -2.1826 -5.1226 -6.8173 -2.2628 -3.4535 -1.7277 -2.2397 -1.7029 -3.4289 -1.4986 -0.1553 -2.6126 -2.7469 -2.6084 -4.2205 -2.2046 -1.0001 4.6823 2.7156 2.5691 4.9398 1.7903 1.5493 4.1920 0.5983 1.4774 2.8872 0.9740 1.7252 0.3648 0.6254 1.2956 5.2558 -0.7225 -0.3849 3.2133 3.5366 4.4096 -2.1494 -1.5131 -0.5146 -5.5820 -2.5903 -3.9438 -3.8307 -2.8085 -2.3281 1.6847 0.0403 1.4825 3.4922 2.6003 3.2663
1.7169 4.0655 4.4784 -0.3378 1.6031 4.4623 4.9906 -1.3867 -1.6211 5.8715 0.5631 2.3357 5.1001 -1.4829 0.7163 3.7224 3.8439 5.2617 1.5365 1.4499 -0.8763 -0.1850 1.8501 2.8727 0.5632 0.7247 2.2481 -0.5217 0.2406 0.1305 -0.2546 -1.1652 -0.2684 -4.4147 -3.5062 -3.4887 4.1779 0.3473 0.0123 2.3665 2.5329 2.1625 -7.5594 -0.7253 -4.1021 -6.5053 -0.7940 -4.9330 -7.5980 -1.5873 -3.0255 -5.5197 -1.6832 -4.7150 -6.5805 -2.4995 -2.8172 -1.3186 -1.7695 -2.4506 -2.3627 -2.3737 -0.5398 -2.3098 -2.3399 -3.2222 -3.3588 -2.9169 -1.3171 4.5044 2.2811 3.1347 4.9184 1.5098 1.9842 3.7546 0.8294 1.3034 2.7889 1.8909 1.1079 0.5411 0.8038 0.9244 4.7218 -0.8787 -0.1744 2.9132 3.6134 4.3637 -1.3502 -1.7817 -1.0943 -5.5433 -2.5400 -3.6723 -3.3482 -2.9238 -2.6603 1.5835 1.4248 0.2939 3.2970 2.7801 3.1858
1.6920 4.0535 4.4757 -0.3321 1.5683 4.4439 4.9532 -1.4463 -1.5605 5.8632 0.5643 2.3414 5.0052 -1.5051 0.7832 3.7074 3.8469 5.2544 1.5360 1.4818 -0.8836 -0.1801 1.8054 2.8822 0.5949 0.6720 2.2511 -0.5191 0.2448 0.1102 -0.2163 -1.1738 -0.3052 -4.3951 -3.4940 -3.5178 4.1824 0.4181 -0.0358 2.3441 2.5032 2.2158 -7.5844 -0.7350 -4.0156 -6.5409 -0.7708 -4.8738 -7.5945 -1.6198 -2.9597 -5.5413 -1.6510 -4.6924 -6.5604 -2.5230 -2.7922 -1.3014 -1.7215 -2.5004 -2.3156 -2.4017 -0.5782 -2.3009 -2.2825 -3.2688 -3.3177 -2.9452 -1.3527 4.4924 2.3047 3.1316 4.9245 1.5328 1.9676 3.7586 0.8418 1.2981 2.7805 1.9270 1.0782 0.5630 0.7877 0.9054 4.7046 -0.8828 -0.1574 2.9014 3.5963 4.3704 -1.3175 -1.7795 -1.1388 -5.5383 -2.5231 -3.6675 -3.3155 -2.8943 -2.6954 1.5847 1.4262 0.2867 3.2829 2.7746 3.1997
2.8200 5.4368 3.5602 -0.6261 2.1524 4.6824 6.5178 -1.8728 -0.8568 6.8088 0.9994 2.9151 6.9474 -1.4375 1.4630 4.3501 4.7239 5.0250 2.1034 -0.2856 -0.1536 -0.0389 1.0117 3.9618 0.1594 1.4916 2.3891 -0.5416 -0.2411 0.7052 -1.0849 0.2229 -0.6276 -5.2322 -3.3117 -3.4014 5.2672 0.1381 0.5013 2.8991 2.2030 2.5230 -8.8906 -2.4286 -5.6513 -8.3806 -3.7296 -5.5506 -8.2177 -1.3771 -5.0194 -7.1889 -4.0001 -4.8129 -7.0203 -1.6051 -4.2701 -1.8771 -1.5539 -2.3426 -3.5733 -0.6227 -0.9204 -2.8504 -2.3903 -2.9965 -4.6136 -1.4806 -1.5792 5.2069 2.6427 3.0704 5.6729 1.5646 2.2062 4.6387 0.5940 1.7978 3.3296 1.3974 1.4969 0.5397 0.6770 1.4172 6.2559 -1.0692 0.4994 3.6455 4.4182 3.9418 -2.1975 -0.6896 -1.2744 -6.4399 -2.9069 -4.1299 -4.2856 -2.3430 -2.6785 1.9858 0.5819 0.9474 3.9114 3.0901 3.1621
2.4808 2.8026 6.6012 0.8153 5.7007 0.6346 6.7409 -2.7276 0.4571 7.0493 1.2894 2.9983 7.6955 -0.6419 1.1174 4.3330 4.0782 6.0375 2.1778 -0.3929 0.2255 0.8621 4.4017 -0.1944 0.7968 3.1408 0.7650 -0.5026 1.1139 -0.3232 -0.7380 -0.2568 -1.1546 -5.9576 -1.7809 -4.3841 5.1408 -0.6889 1.5030 2.8659 2.0367 3.0992 -9.1757 -4.8703 -4.0201 -9.0582 -4.0584 -5.1459 -8.2751 -4.7341 -2.9723 -8.0151 -3.0775 -5.2327 -7.1733 -3.7150 -3.0096 -2.1446 -1.2790 -3.2337 -3.5432 -0.3440 -1.4326 -3.3591 -1.6392 -4.0091 -4.7812 -0.7134 -2.2236 5.0736 1.8480 4.1678 5.5963 0.9205 3.1704 4.8592 0.8034 1.8669 3.2510 1.0773 2.0985 0.8487 1.6724 0.3509 6.6008 -1.2433 1.0430 3.5197 3.1061 5.6500 -2.1840 -0.5891 -1.9359 -7.0222 -2.8935 -4.1444 -4.6970 -1.4092 -3.4876 2.0923 0.7730 0.8437 3.8270 2.2903 4.2739
2.3557 2.3309 6.7889 1.4858 6.1330 0.6453 7.4613 -2.6510 0.8157 7.1994 1.2926 3.4089 8.1058 -0.4464 1.4607 4.0796 3.8047 6.3053 2.5605 -0.2246 -0.0290 1.3798 4.6684 -0.2992 1.0942 3.3757 0.6013 0.0213 1.2359 -1.0334 -1.6683 0.7756 -1.0398 -5.9410 -2.3891 -4.6300 5.5419 -0.6155 1.5231 2.8508 1.8502 3.1609 -9.6114 -4.9376 -3.9063 -9.1745 -4.6134 -5.1918 -8.9027 -4.4676 -2.7658 -8.0129 -3.7926 -5.3812 -7.6668 -3.6090 -2.9433 -3.7218 0.4698 -2.9296 -2.9169 -1.6136 -1.8829 -4.6584 -0.2415 -3.7296 -3.9753 -2.3411 -2.7915 5.0305 1.7378 4.3272 5.6719 0.8973 3.3319 5.0695 0.8545 1.9370 3.3877 1.1049 1.9822 1.0749 1.8142 -0.0161 7.0903 -1.1120 1.2838 3.3488 2.7884 5.8183 -2.6004 -0.1061 -1.9611 -7.2094 -3.2733 -4.2366 -4.8563 -1.6862 -3.6394 2.3587 0.8932 0.6275 3.7479 2.0935 4.3885
2.6043 2.3935 6.8794 1.5200 6.1570 0.6161 7.4640 -2.6697 0.7644 7.2904 1.3170 3.2693 8.1243 -0.4388 1.3420 4.3032 3.8987 6.2801 2.4681 -0.2508 0.1060 1.3396 4.6961 -0.2154 0.9835 3.3837 0.7756 -0.0097 1.2144 -1.0224 -1.8013 0.7867 -0.7319 -5.9939 -2.3491 -4.6346 5.5284 -0.6654 1.4748 2.8924 1.9009 3.2528 -9.6216 -5.0733 -4.2789 -9.2369 -4.4889 -5.4864 -8.8721 -4.8276 -3.1062 -8.0893 -3.6407 -5.5541 -7.6566 -3.9360 -3.1390 -3.8164 0.5264 -2.7785 -3.0452 -1.5905 -1.6897 -4.7453 -0.2267 -3.6383 -4.0794 -2.3410 -2.6487 5.1621 1.8059 4.3021 5.7911 0.9377 3.3085 5.1105 0.8447 1.9184 3.4105 1.1456 2.0234 1.0413 1.8384 0.0977 7.1302 -1.1624 1.2137 3.5842 2.8653 5.8718 -2.8135 -0.0759 -1.7369 -7.2622 -3.3248 -4.3667 -4.9323 -1.6494 -3.5785 2.3203 0.8457 0.6897 3.9074 2.1534 4.4206
2.6035 2.3920 6.8821 1.5255 6.1588 0.6099 7.4624 -2.6743 0.7702 7.2941 1.3147 3.2679 8.1281 -0.4348 1.3472 4.3029 3.9008 6.2832 2.4665 -0.2506 0.1100 1.3426 4.6989 -0.2121 0.9741 3.3877 0.7819 -0.0098 1.2152 -1.0364 -1.7978 0.7922 -0.7326 -5.9892 -2.3556 -4.6501 5.5315 -0.6702 1.4653 2.8871 1.8951 3.2654 -9.6337 -5.0727 -4.2677 -9.2521 -4.4914 -5.4753 -8.8773 -4.8280 -3.1000 -8.0994 -3.6466 -5.5488 -7.6572 -3.9400 -3.1391 -3.8097 0.5351 -2.7910 -3.0461 -1.5862 -1.6931 -4.7429 -0.2319 -3.6537 -4.0776 -2.3436 -2.6530 5.1677 1.8162 4.3074 5.7983 0.9389 3.3175 5.1172 0.8437 1.9232 3.4140 1.1489 2.0232 1.0462 1.8420 0.1006 7.1315 -1.1669 1.2147 3.5874 2.8676 5.8776 -2.8216 -0.0721 -1.7468 -7.2693 -3.3336 -4.3716 -4.9276 -1.6495 -3.5914 2.3213 0.8430 0.6882 3.9097 2.1569 4.4273
3.1147 2.3963 7.2062 1.4545 6.1522 0.7743 7.7047 -2.5728 0.8091 7.4707 1.4790 3.1631 8.3214 -0.2941 1.3128 4.6052 4.0097 6.3531 2.4917 -0.2464 0.2260 1.2845 4.6808 -0.0621 0.8997 3.3572 0.9042 -0.4489 0.8172 -0.2448 -1.3207 0.8150 -1.8496 -7.0449 -1.9312 -3.6003 5.6646 -0.5973 1.4267 3.0057 1.7413 3.5603 -9.2166 -5.6189 -5.2648 -9.6891 -4.3245 -5.4544 -8.0331 -5.8326 -4.5325 -8.9698 -3.1941 -4.9087 -7.2374 -4.6646 -3.9427 -4.1351 0.6621 -2.4198 -2.8751 -1.4805 -2.7050 -5.4082 -0.0357 -2.8330 -4.2617 -2.1487 -3.1317 5.3869 1.9405 4.3194 5.9772 1.0497 3.3089 5.1801 0.8950 1.9459 3.4871 1.1604 2.1678 0.8755 1.7090 0.3922 7.3035 -1.0569 1.2063 3.9290 2.9037 6.0578 -2.7403 -0.0056 -2.2648 -7.6870 -3.3315 -4.1697 -5.5063 -1.4223 -3.1922 2.2926 0.8257 0.8651 4.1247 2.1630 4.5768
3.1923 2.3239 7.7634 1.5649 6.4542 -0.6222 7.9193 -2.1859 0.0481 7.6459 1.6443 2.9239 8.3938 -0.0157 1.0783 5.1287 3.2057 7.3509 2.4009 -0.0848 0.4971 1.2743 4.8389 -0.9002 0.9759 3.7570 0.4703 -0.5877 1.0085 0.1396 -1.5273 0.7292 -1.4211 -7.2235 -2.2802 -3.3352 5.7370 -0.4860 1.2720 3.2529 1.9815 3.9276 -9.3898 -5.5700 -5.9852 -9.8778 -4.2695 -5.8582 -8.1976 -5.9170 -5.2805 -9.1827 -3.2639 -5.0297 -7.4301 -4.9007 -4.4089 -4.3766 0.4444 -1.8578 -3.0102 -1.5690 -2.5473 -5.6300 -0.3334 -2.3280 -4.3507 -2.3068 -3.0489 5.6595 1.8151 4.5531 6.1753 1.1414 3.3052 5.2622 0.9469 2.0285 3.5661 1.3228 2.3911 0.9052 2.0218 0.4375 7.4066 -0.7974 0.8428 4.2164 2.5196 6.6240 -2.9571 -0.1125 -1.8681 -7.8781 -3.5383 -4.3093 -5.6582 -1.6825 -2.9243 2.2727 1.0982 1.1043 4.3275 2.0603 4.9672
3.1919 2.2840 7.7808 1.5549 6.4567 -0.6173 7.9167 -2.1936 0.0481 7.6510 1.6419 2.9102 8.3961 -0.0136 1.0630 5.1796 3.2431 7.3377 2.3920 -0.0831 0.5091 1.2701 4.8367 -0.8968 0.9527 3.7619 0.5023 -0.5987 0.9990 0.1544 -1.5206 0.7341 -1.4458 -7.2398 -2.2923 -3.3133 5.7341 -0.4894 1.2695 3.2392 1.9654 3.9478 -9.3862 -5.5621 -6.0191 -9.8824 -4.2693 -5.8698 -8.1889 -5.9119 -5.3223 -9.1925 -3.2728 -5.0188 -7.4280 -4.9049 -4.4273 -4.3788 0.4432 -1.8617 -3.0114 -1.5647 -2.5656 -5.6359 -0.3365 -2.3233 -4.3586 -2.3193 -3.0369 5.6642 1.8206 4.5653 6.1969 1.1520 3.2922 5.2682 0.9583 2.0288 3.5717 1.3374 2.4027 0.8898 2.0233 0.4600 7.4072 -0.8017 0.8336 4.2317 2.5428 6.6622 -2.9543 -0.1139 -1.8940 -7.8933 -3.5478 -4.3053 -5.6648 -1.6906 -2.9164 2.2747 1.0915 1.0959 4.3517 2.0757 4.9701
3.1901 2.2669 7.7873 1.5492 6.4586 -0.6159 7.9155 -2.1975 0.0496 7.6518 1.6397 2.9054 8.3969 -0.0117 1.0583 5.2036 3.2655 7.3302 2.3866 -0.0818 0.5162 1.2683 4.8350 -0.8959 0.9423 3.7644 0.5158 -0.6047 1.0000 0.1561 -1.5146 0.7393 -1.4631 -7.2512 -2.2993 -3.3008 5.7328 -0.4911 1.2673 3.2316 1.9467 3.9624 -9.3849 -5.5590 -6.0342 -9.8863 -4.2726 -5.8721 -8.1839 -5.9107 -5.3423 -9.1992 -3.2791 -5.0125 -7.4254 -4.9076 -4.4396 -4.3788 0.4435 -1.8669 -3.0122 -1.5627 -2.5738 -5.6392 -0.3381 -2.3210 -4.3635 -2.3234 -3.0334 5.6702 1.8354 4.5711 6.2079 1.1492 3.2917 5.2745 0.9680 2.0294 3.5757 1.3464 2.4062 0.8836 2.0227 0.4687 7.4085 -0.8053 0.8284 4.2426 2.5525 6.6830 -2.9565 -0.1119 -1.9087 -7.9008 -3.5523 -4.3039 -5.6706 -1.6926 -2.9122 2.2754 1.0841 1.0920 4.3648 2.0788 4.9775
3.1840 2.2829 7.7935 1.5599 6.4603 -0.6246 7.9139 -2.2172 0.0804 7.6509 1.6303 2.9185 8.4010 -0.0215 1.0777 5.2188 3.2972 7.3263 2.3774 -0.0851 0.5389 1.2823 4.8312 -0.9040 0.9474 3.7661 0.5108 -0.6031 1.0049 0.1350 -1.4909 0.7495 -1.5040 -7.2624 -2.2910 -3.3083 5.7348 -0.4952 1.2741 3.2213 1.9295 3.9801 -9.4043 -5.5713 -6.0203 -9.8658 -4.2613 -5.9369 -8.2546 -5.9434 -5.2596 -9.1832 -3.2622 -5.0770 -7.4974 -4.9367 -4.3566 -4.3643 0.4503 -1.9015 -3.0017 -1.5575 -2.6021 -5.6294 -0.3333 -2.3495 -4.3586 -2.3289 -3.0501 5.6759 1.8558 4.5852 6.2184 1.1484 3.2996 5.2838 0.9780 2.0395 3.5814 1.3573 2.4096 0.8851 2.0201 0.4653 7.4145 -0.8214 0.8431 4.2528 2.5724 6.7077 -2.9496 -0.1166 -1.9463 -7.9239 -3.5535 -4.2992 -5.6690 -1.6922 -2.9307 2.2794 1.0675 1.0901 4.3752 2.0864 4.9953
3.1908 2.2744 7.7950 1.5426 6.4667 -0.6112 7.9131 -2.2163 0.0782 7.6506 1.6252 2.9176 8.4019 -0.0111 1.0714 5.2477 3.3198 7.3161 2.3666 -0.0824 0.5570 1.2750 4.8287 -0.8966 0.9362 3.7695 0.5226 -0.6160 1.0136 0.1271 -1.4789 0.7650 -1.5318 -7.2870 -2.3144 -3.2684 5.7395 -0.4888 1.2599 3.2154 1.8865 4.0068 -9.3967 -5.5636 -6.0652 -9.8676 -4.2581 -5.9612 -8.2453 -5.9435 -5.3006 -9.1928 -3.2644 -5.0804 -7.5048 -4.9452 -4.3767 -4.3650 0.4489 -1.9039 -3.0038 -1.5629 -2.6021 -5.6432 -0.3357 -2.3314 -4.3670 -2.3428 -3.0351 5.6989 1.8807 4.5922 6.2327 1.1325 3.3085 5.2974 0.9895 2.0408 3.5902 1.3743 2.4031 0.8810 2.0145 0.4719 7.4219 -0.8207 0.8339 4.2765 2.5889 6.7271 -2.9592 -0.1160 -1.9695 -7.9402 -3.5626 -4.2956 -5.6874 -1.7000 -2.9060 2.2817 1.0570 1.0860 4.3954 2.0929 5.0206
3.2008 2.2646 7.7975 1.5310 6.4709 -0.5969 7.9167 -2.2049 0.0654 7.6522 1.6298 2.9123 8.4031 0.0004 1.0617 5.2574 3.3171 7.3159 2.3649 -0.0822 0.5617 1.2660 4.8315 -0.8855 0.9296 3.7698 0.5329 -0.6186 1.0139 0.1264 -1.4794 0.7693 -1.5322 -7.2905 -2.3375 -3.2475 5.7426 -0.4817 1.2515 3.2172 1.8747 4.0136 -9.3991 -5.5476 -6.0941 -9.8832 -4.2502 -5.9512 -8.2336 -5.9311 -5.3541 -9.2084 -3.2681 -5.0558 -7.4910 -4.9457 -4.4186 -4.3691 0.4437 -1.8916 -3.0054 -1.5650 -2.5973 -5.6488 -0.3456 -2.3152 -4.3689 -2.3498 -3.0260 5.7068 1.8852 4.5911 6.2390 1.1337 3.3054 5.3012 0.9946 2.0380 3.5926 1.3777 2.4017 0.8783 2.0137 0.4767 7.4257 -0.8102 0.8232 4.2856 2.5855 6.7311 -2.9647 -0.1217 -1.9666 -7.9427 -3.5698 -4.2958 -5.6918 -1.7121 -2.8905 2.2818 1.0552 1.0869 4.4026 2.0917 5.0257
3.2012 2.2640 7.7970 1.5294 6.4711 -0.5961 7.9161 -2.2053 0.0658 7.6519 1.6275 2.9133 8.4030 0.0013 1.0617 5.2598 3.3198 7.3143 2.3626 -0.0830 0.5653 1.2653 4.8307 -0.8850 0.9291 3.7702 0.5331 -0.6204 1.0162 0.1240 -1.4776 0.7723 -1.5352 -7.2929 -2.3394 -3.2445 5.7435 -0.4803 1.2494 3.2164 1.8678 4.0170 -9.3984 -5.5474 -6.0975 -9.8833 -4.2521 -5.9518 -8.2326 -5.9308 -5.3582 -9.2100 -3.2696 -5.0547 -7.4905 -4.9470 -4.4210 -4.3692 0.4438 -1.8919 -3.0053 -1.5650 -2.5989 -5.6510 -0.3447 -2.3133 -4.3699 -2.3502 -3.0253 5.7103 1.8898 4.5922 6.2410 1.1325 3.3066 5.3033 0.9949 2.0386 3.5940 1.3809 2.3998 0.8780 2.0130 0.4769 7.4264 -0.8100 0.8223 4.2882 2.5869 6.7338 -2.9668 -0.1205 -1.9701 -7.9448 -3.5708 -4.2956 -5.6936 -1.7121 -2.8890 2.2820 1.0534 1.0865 4.4049 2.0921 5.0306
3.2019 2.2639 7.7965 1.5275 6.4715 -0.5953 7.9157 -2.2053 0.0659 7.6516 1.6257 2.9140 8.4028 0.0024 1.0613 5.2623 3.3228 7.3126 2.3601 -0.0844 0.5692 1.2645 4.8301 -0.8847 0.9286 3.7705 0.5332 -0.6223 1.0185 0.1218 -1.4760 0.7752 -1.5379 -7.2957 -2.3414 -3.2407 5.7442 -0.4788 1.2474 3.2157 1.8618 4.0200 -9.3972 -5.5472 -6.1019 -9.8826 -4.2522 -5.9553 -8.2318 -5.9308 -5.3617 -9.2101 -3.2702 -5.0562 -7.4915 -4.9484 -4.4211 -4.3695 0.4440 -1.8919 -3.0055 -1.5652 -2.5998 -5.6530 -0.3443 -2.3113 -4.3712 -2.3505 -3.0244 5.7140 1.8921 4.5937 6.2436 1.1306 3.3082 5.3054 0.9954 2.0390 3.5955 1.3842 2.3978 0.8776 2.0127 0.4771 7.4270 -0.8097 0.8214 4.2904 2.5888 6.7357 -2.9684 -0.1208 -1.9724 -7.9466 -3.5730 -4.2944 -5.6959 -1.7121 -2.8866 2.2820 1.0516 1.0863 4.4072 2.0927 5.0349
3.2025 2.2627 7.7962 1.5253 6.4721 -0.5937 7.9157 -2.2048 0.0654 7.6514 1.6237 2.9150 8.4026 0.0034 1.0610 5.2641 3.3246 7.3114 2.3580 -0.0849 0.5723 1.2636 4.8295 -0.8837 0.9281 3.7709 0.5336 -0.6243 1.0210 0.1200 -1.4744 0.7781 -1.5403 -7.2976 -2.3443 -3.2378 5.7453 -0.4772 1.2450 3.2151 1.8551 4.0233 -9.3965 -5.5472 -6.1049 -9.8851 -4.2515 -5.9541 -8.2303 -5.9307 -5.3663 -9.2131 -3.2710 -5.0531 -7.4900 -4.9489 -4.4260 -4.3697 0.4437 -1.8920 -3.0055 -1.5651 -2.6009 -5.6542 -0.3445 -2.3100 -4.3714 -2.3512 -3.0244 5.7172 1.8957 4.5946 6.2456 1.1299 3.3091 5.3074 0.9961 2.0392 3.5970 1.3874 2.3958 0.8774 2.0123 0.4773 7.4278 -0.8087 0.8203 4.2921 2.5893 6.7376 -2.9701 -0.1206 -1.9747 -7.9484 -3.5737 -4.2949 -5.6969 -1.7140 -2.8850 2.2823 1.0502 1.0858 4.4089 2.0927 5.0390
3.2030 2.2624 7.7956 1.5240 6.4723 -0.5931 7.9152 -2.2048 0.0655 7.6511 1.6218 2.9159 8.4025 0.0044 1.0610 5.2657 3.3268 7.3100 2.3560 -0.0858 0.5756 1.2630 4.8290 -0.8833 0.9277 3.7712 0.5336 -0.6255 1.0231 0.1176 -1.4728 0.7809 -1.5430 -7.2997 -2.3462 -3.2349 5.7461 -0.4759 1.2432 3.2146 1.8490 4.0264 -9.3959 -5.5470 -6.1077 -9.8851 -4.2523 -5.9549 -8.2294 -5.9304 -5.3702 -9.2144 -3.2723 -5.0518 -7.4904 -4.9497 -4.4273 -4.3696 0.4440 -1.8925 -3.0055 -1.5650 -2.6020 -5.6556 -0.3441 -2.3087 -4.3720 -2.3516 -3.0239 5.7198 1.8983 4.5958 6.2473 1.1288 3.3102 5.3092 0.9963 2.0396 3.5983 1.3904 2.3939 0.8772 2.0121 0.4774 7.4283 -0.8082 0.8196 4.2937 2.5903 6.7393 -2.9708 -0.1208 -1.9777 -7.9501 -3.5750 -4.2940 -5.6985 -1.7137 -2.8835 2.2824 1.0491 1.0855 4.4105 2.0926 5.0428
3.2041 2.2623 7.7946 1.5213 6.4727 -0.5919 7.9147 -2.2042 0.0657 7.6506 1.6195 2.9172 8.4021 0.0062 1.0610 5.2680 3.3305 7.3075 2.3522 -0.0881 0.5821 1.2617 4.8279 -0.8825 0.9268 3.7717 0.5334 -0.6278 1.0271 0.1128 -1.4698 0.7862 -1.5481 -7.3036 -2.3502 -3.2290 5.7475 -0.4732 1.2400 3.2139 1.8391 4.0310 -9.3948 -5.5464 -6.1129 -9.8860 -4.2522 -5.9570 -8.2277 -5.9303 -5.3759 -9.2163 -3.2734 -5.0511 -7.4911 -4.9512 -4.4293 -4.3696 0.4441 -1.8934 -3.0057 -1.5647 -2.6039 -5.6576 -0.3441 -2.3062 -4.3732 -2.3525 -3.0226 5.7250 1.8999 4.5993 6.2504 1.1271 3.3123 5.3126 0.9968 2.0402 3.6007 1.3966 2.3903 0.8769 2.0117 0.4772 7.4294 -0.8072 0.8184 4.2962 2.5921 6.7419 -2.9726 -0.1212 -1.9823 -7.9530 -3.5772 -4.2929 -5.7011 -1.7147 -2.8803 2.2825 1.0473 1.0847 4.4135 2.0918 5.0495
3.2011 2.2753 7.7954 1.5312 6.4711 -0.6000 7.9151 -2.2134 0.0817 7.6497 1.6144 2.9256 8.4036 0.0011 1.0728 5.2645 3.3387 7.3084 2.3496 -0.0975 0.5933 1.2709 4.8246 -0.8888 0.9319 3.7707 0.5282 -0.6233 1.0303 0.0997 -1.4587 0.7890 -1.5676 -7.3053 -2.3415 -3.2370 5.7482 -0.4761 1.2466 3.2124 1.8387 4.0336 -9.4033 -5.5534 -6.0969 -9.8707 -4.2489 -5.9880 -8.2646 -5.9465 -5.3259 -9.2061 -3.2617 -5.0854 -7.5343 -4.9655 -4.3781 -4.3606 0.4471 -1.9123 -3.0002 -1.5635 -2.6175 -5.6511 -0.3390 -2.3218 -4.3695 -2.3517 -3.0325 5.7257 1.9047 4.6048 6.2502 1.1259 3.3191 5.3139 0.9935 2.0463 3.6019 1.3999 2.3904 0.8808 2.0122 0.4729 7.4316 -0.8125 0.8290 4.2934 2.5996 6.7446 -2.9655 -0.1200 -2.0020 -7.9615 -3.5753 -4.2878 -5.6970 -1.7120 -2.8913 2.2841 1.0442 1.0866 4.4119 2.0976 5.0538
3.2024 2.2748 7.7946 1.5287 6.4710 -0.5986 7.9148 -2.2119 0.0814 7.6494 1.6122 2.9266 8.4031 0.0029 1.0723 5.2673 3.3421 7.3060 2.3468 -0.0975 0.5982 1.2693 4.8235 -0.8874 0.9309 3.7712 0.5282 -0.6254 1.0338 0.0956 -1.4566 0.7933 -1.5704 -7.3089 -2.3456 -3.2313 5.7494 -0.4739 1.2433 3.2122 1.8308 4.0370 -9.4020 -5.5539 -6.1010 -9.8725 -4.2489 -5.9880 -8.2634 -5.9474 -5.3291 -9.2068 -3.2624 -5.0863 -7.5321 -4.9659 -4.3867 -4.3611 0.4469 -1.9118 -3.0011 -1.5640 -2.6171 -5.6528 -0.3396 -2.3189 -4.3708 -2.3526 -3.0310 5.7292 1.9057 4.6070 6.2533 1.1232 3.3218 5.3171 0.9945 2.0465 3.6043 1.4057 2.3873 0.8805 2.0118 0.4730 7.4320 -0.8118 0.8277 4.2964 2.6021 6.7462 -2.9679 -0.1211 -2.0034 -7.9644 -3.5760 -4.2901 -5.7005 -1.7117 -2.8878 2.2839 1.0428 1.0867 4.4151 2.0960 5.0593
3.2029 2.2754 7.7941 1.5281 6.4708 -0.5986 7.9147 -2.2119 0.0822 7.6493 1.6110 2.9273 8.4030 0.0032 1.0727 5.2681 3.3438 7.3049 2.3456 -0.0975 0.6006 1.2692 4.8228 -0.8871 0.9308 3.7712 0.5278 -0.6262 1.0354 0.0933 -1.4551 0.7953 -1.5725 -7.3111 -2.3464 -3.2284 5.7501 -0.4731 1.2419 3.2122 1.8272 4.0385 -9.4005 -5.5544 -6.1041 -9.8709 -4.2492 -5.9918 -8.2636 -5.9474 -5.3300 -9.2068 -3.2624 -5.0877 -7.5343 -4.9660 -4.3850 -4.3608 0.4468 -1.9127 -3.0017 -1.5642 -2.6168 -5.6534 -0.3398 -2.3179 -4.3716 -2.3534 -3.0294 5.7307 1.9069 4.6081 6.2543 1.1223 3.3229 5.3185 0.9945 2.0469 3.6052 1.4083 2.3859 0.8804 2.0115 0.4728 7.4324 -0.8118 0.8275 4.2974 2.6032 6.7470 -2.9687 -0.1213 -2.0050 -7.9663 -3.5764 -4.2899 -5.7018 -1.7119 -2.8860 2.2839 1.0421 1.0867 4.4161 2.0957 5.0618
3.2034 2.2750 7.7937 1.5272 6.4708 -0.5978 7.9144 -2.2116 0.0822 7.6490 1.6096 2.9281 8.4026 0.0036 1.0728 5.2688 3.3447 7.3042 2.3442 -0.0979 0.6030 1.2686 4.8222 -0.8865 0.9305 3.7714 0.5280 -0.6266 1.0370 0.0911 -1.4540 0.7974 -1.5741 -7.3122 -2.3477 -3.2266 5.7506 -0.4722 1.2405 3.2121 1.8225 4.0408 -9.4002 -5.5543 -6.1055 -9.8716 -4.2493 -5.9915 -8.2631 -5.9472 -5.3319 -9.2077 -3.2629 -5.0865 -7.5337 -4.9663 -4.3873 -4.3608 0.4468 -1.9131 -3.0015 -1.5641 -2.6182 -5.6541 -0.3398 -2.3171 -4.3720 -2.3538 -3.0291 5.7321 1.9087 4.6087 6.2552 1.1215 3.3237 5.3198 0.9947 2.0470 3.6062 1.4108 2.3846 0.8803 2.0114 0.4725 7.4327 -0.8114 0.8270 4.2982 2.6041 6.7478 -2.9692 -0.1214 -2.0067 -7.9673 -3.5775 -4.2892 -5.7026 -1.7121 -2.8851 2.2838 1.0417 1.0867 4.4170 2.0956 5.0638
3.2043 2.2745 7.7928 1.5256 6.4706 -0.5966 7.9139 -2.2109 0.0824 7.6487 1.6067 2.9299 8.4020 0.0044 1.0730 5.2701 3.3468 7.3024 2.3418 -0.0983 0.6072 1.2677 4.8214 -0.8855 0.9298 3.7716 0.5276 -0.6289 1.0404 0.0884 -1.4521 0.8012 -1.5768 -7.3141 -2.3500 -3.2237 5.7514 -0.4707 1.2380 3.2122 1.8162 4.0433 -9.3998 -5.5543 -6.1078 -9.8722 -4.2499 -5.9912 -8.2624 -5.9471 -5.3348 -9.2089 -3.2643 -5.0850 -7.5333 -4.9670 -4.3896 -4.3609 0.4468 -1.9139 -3.0016 -1.5642 -2.6194 -5.6551 -0.3398 -2.3158 -4.3723 -2.3544 -3.0288 5.7347 1.9101 4.6104 6.2569 1.1197 3.3256 5.3223 0.9949 2.0471 3.6080 1.4159 2.3819 0.8803 2.0112 0.4722 7.4334 -0.8106 0.8260 4.2996 2.6048 6.7493 -2.9706 -0.1214 -2.0093 -7.9690 -3.5784 -4.2896 -5.7037 -1.7124 -2.8837 2.2838 1.0412 1.0863 4.4185 2.0950 5.0676
3.2050 2.2752 7.7922 1.5252 6.4703 -0.5964 7.9138 -2.2108 0.0830 7.6486 1.6054 2.9306 8.4019 0.0045 1.0735 5.2705 3.3481 7.3016 2.3407 -0.0985 0.6094 1.2677 4.8207 -0.8853 0.9297 3.7717 0.5272 -0.6297 1.0421 0.0864 -1.4507 0.8028 -1.5786 -7.3161 -2.3510 -3.2207 5.7520 -0.4700 1.2373 3.2123 1.8143 4.0438 -9.3982 -5.5544 -6.1111 -9.8703 -4.2498 -5.9962 -8.2622 -5.9473 -5.3354 -9.2086 -3.2643 -5.0870 -7.5362 -4.9673 -4.3864 -4.3608 0.4467 -1.9142 -3.0021 -1.5642 -2.6196 -5.6557 -0.3397 -2.3149 -4.3731 -2.3548 -3.0274 5.7361 1.9102 4.6118 6.2579 1.1188 3.3266 5.3235 0.9953 2.0473 3.6088 1.4181 2.3806 0.8804 2.0114 0.4718 7.4337 -0.8104 0.8261 4.3000 2.6053 6.7500 -2.9712 -0.1217 -2.0109 -7.9709 -3.5793 -4.2881 -5.7052 -1.7129 -2.8818 2.2839 1.0408 1.0860 4.4191 2.0947 5.0691
3.1940 2.2670 7.8185 1.5645 6.4780 -0.6091 7.9481 -2.2070 0.1343 7.6523 1.5976 2.9830 8.4238 0.0105 1.1322 5.2346 3.3669 7.3223 2.3496 -0.1070 0.6284 1.3091 4.8214 -0.9095 0.9631 3.7829 0.4784 -0.5999 1.0600 0.0163 -1.3880 0.8225 -1.6692 -7.2835 -2.3355 -3.2937 5.7749 -0.4657 1.2585 3.2015 1.7890 4.0583 -9.5465 -5.5928 -5.9780 -10.0079 -4.2712 -5.8835 -8.3569 -5.9921 -5.2511 -9.2887 -3.2726 -5.0397 -7.6102 -5.0001 -4.3669 -4.3118 0.4653 -2.0165 -2.9618 -1.5541 -2.6835 -5.6140 -0.3163 -2.4151 -4.3324 -2.3472 -3.0895 5.7294 1.9096 4.6510 6.2587 1.1132 3.3687 5.3387 0.9996 2.0742 3.6173 1.4397 2.3807 0.9109 2.0145 0.4338 7.4651 -0.8030 0.8744 4.2708 2.5991 6.7798 -2.9238 -0.1111 -2.1020 -7.9961 -3.5880 -4.2980 -5.6847 -1.7031 -2.9662 2.2996 1.0446 1.0808 4.4002 2.0855 5.0979
3.1948 2.2674 7.8183 1.5641 6.4773 -0.6094 7.9489 -2.2066 0.1355 7.6526 1.5968 2.9839 8.4240 0.0110 1.1329 5.2355 3.3688 7.3214 2.3491 -0.1074 0.6308 1.3093 4.8203 -0.9099 0.9623 3.7818 0.4794 -0.5990 1.0602 0.0121 -1.3870 0.8222 -1.6692 -7.2913 -2.3302 -3.2926 5.7761 -0.4646 1.2582 3.2016 1.7858 4.0596 -9.5430 -5.5949 -5.9832 -10.0034 -4.2728 -5.8922 -8.3626 -5.9902 -5.2470 -9.2869 -3.2731 -5.0448 -7.6073 -5.0019 -4.3711 -4.3111 0.4645 -2.0170 -2.9616 -1.5551 -2.6842 -5.6161 -0.3165 -2.4121 -4.3338 -2.3492 -3.0870 5.7298 1.9104 4.6515 6.2596 1.1139 3.3691 5.3394 0.9980 2.0751 3.6182 1.4419 2.3804 0.9113 2.0150 0.4336 7.4658 -0.8031 0.8748 4.2744 2.6047 6.7801 -2.9255 -0.1111 -2.1019 -8.0063 -3.5870 -4.2920 -5.6842 -1.7056 -2.9648 2.3001 1.0438 1.0814 4.4024 2.0857 5.1000
3.2064 2.2589 7.8201 1.5535 6.4802 -0.5967 7.9524 -2.1952 0.1232 7.6552 1.5998 2.9781 8.4248 0.0199 1.1228 5.2446 3.3656 7.3208 2.3477 -0.1056 0.6352 1.3008 4.8221 -0.9000 0.9545 3.7809 0.4906 -0.6007 1.0611 0.0119 -1.3904 0.8236 -1.6627 -7.2991 -2.3461 -3.2717 5.7795 -0.4572 1.2510 3.2059 1.7795 4.0623 -9.5407 -5.5813 -6.0172 -10.0076 -4.2691 -5.8932 -8.3559 -5.9762 -5.2970 -9.2953 -3.2763 -5.0311 -7.5949 -5.0024 -4.4071 -4.3176 0.4574 -2.0013 -2.9659 -1.5573 -2.6767 -5.6239 -0.3275 -2.3918 -4.3378 -2.3564 -3.0753 5.7365 1.9122 4.6495 6.2646 1.1168 3.3648 5.3420 1.0008 2.0717 3.6204 1.4456 2.3799 0.9076 2.0171 0.4393 7.4676 -0.7953 0.8643 4.2863 2.6039 6.7817 -2.9316 -0.1164 -2.0931 -8.0109 -3.5935 -4.2926 -5.6891 -1.7172 -2.9470 2.2998 1.0427 1.0844 4.4113 2.0851 5.1026
3.1678 2.4337 7.8221 1.6938 6.4438 -0.7329 7.9693 -2.2960 0.3232 7.6774 1.5827 3.0675 8.4524 -0.0551 1.2638 5.2132 3.4867 7.3212 2.3826 -0.1236 0.6786 1.4213 4.7800 -0.9963 1.0149 3.7641 0.4025 -0.5461 1.0406 -0.0428 -1.3152 0.7407 -1.7160 -7.2841 -2.2191 -3.5355 5.8030 -0.4922 1.3594 3.1981 1.8084 4.0839 -9.7321 -5.6721 -5.7865 -9.8252 -4.3320 -6.1978 -8.9047 -6.0155 -4.6827 -9.0804 -3.2633 -5.4949 -8.0937 -4.9697 -3.9129 -4.2139 0.5049 -2.3235 -2.9566 -1.6672 -2.5932 -5.5304 -0.2466 -2.7543 -4.3465 -2.4194 -3.0101 5.7283 1.9573 4.6975 6.2676 1.1256 3.4422 5.3596 0.9862 2.1386 3.6387 1.4607 2.4034 0.9629 2.0007 0.3916 7.4898 -0.8651 1.0118 4.2595 2.7270 6.7878 -2.8552 -0.1545 -2.1732 -8.0900 -3.5502 -4.3431 -5.6552 -1.6884 -3.1228 2.3356 1.0365 1.0957 4.3934 2.1504 5.1276
3.1669 2.4456 7.8210 1.7001 6.4397 -0.7411 7.9731 -2.2991 0.3358 7.6775 1.5818 3.0731 8.4550 -0.0573 1.2730 5.2114 3.4960 7.3200 2.3823 -0.1267 0.6847 1.4279 4.7746 -1.0036 1.0180 3.7616 0.3981 -0.5456 1.0397 -0.0471 -1.3054 0.7371 -1.7275 -7.2921 -2.2085 -3.5384 5.8044 -0.4941 1.3652 3.1982 1.8098 4.0837 -9.7375 -5.6769 -5.7752 -9.8070 -4.3514 -6.2180 -8.9428 -6.0049 -4.6459 -9.0604 -3.2718 -5.5263 -8.1328 -4.9507 -3.8834 -4.2058 0.5019 -2.3364 -2.9563 -1.6731 -2.5889 -5.5271 -0.2454 -2.7616 -4.3415 -2.4228 -3.0207 5.7274 1.9611 4.7002 6.2678 1.1254 3.4476 5.3621 0.9858 2.1421 3.6395 1.4619 2.4042 0.9628 1.9988 0.3919 7.4930 -0.8681 1.0209 4.2572 2.7337 6.7895 -2.8485 -0.1590 -2.1877 -8.0999 -3.5435 -4.3491 -5.6535 -1.6883 -3.1275 2.3377 1.0344 1.0966 4.3939 2.1529 5.1310
3.1680 2.4460 7.8208 1.6999 6.4388 -0.7411 7.9738 -2.2990 0.3366 7.6777 1.5806 3.0736 8.4553 -0.0572 1.2735 5.2129 3.4975 7.3189 2.3821 -0.1270 0.6865 1.4282 4.7734 -1.0039 1.0182 3.7612 0.3981 -0.5482 1.0409 -0.0456 -1.3032 0.7381 -1.7307 -7.3003 -2.2031 -3.5320 5.8049 -0.4941 1.3649 3.1988 1.8090 4.0833 -9.7334 -5.6778 -5.7839 -9.8045 -4.3538 -6.2210 -8.9403 -6.0068 -4.6497 -9.0596 -3.2735 -5.5265 -8.1315 -4.9518 -3.8868 -4.2052 0.5017 -2.3367 -2.9570 -1.6738 -2.5874 -5.5284 -0.2455 -2.7596 -4.3433 -2.4236 -3.0181 5.7281 1.9618 4.7004 6.2685 1.1252 3.4478 5.3638 0.9864 2.1420 3.6402 1.4633 2.4038 0.9623 1.9983 0.3927 7.4937 -0.8683 1.0211 4.2579 2.7346 6.7898 -2.8496 -0.1592 -2.1888 -8.1060 -3.5436 -4.3469 -5.6573 -1.6858 -3.1239 2.3379 1.0337 1.0967 4.3957 2.1536 5.1320
3.1725 2.4463 7.8200 1.6981 6.4366 -0.7400 7.9764 -2.2966 0.3385 7.6784 1.5762 3.0761 8.4563 -0.0557 1.2748 5.2176 3.5030 7.3152 2.3813 -0.1279 0.6928 1.4286 4.7693 -1.0040 1.0179 3.7598 0.3997 -0.5521 1.0431 -0.0476 -1.2972 0.7408 -1.7381 -7.3207 -2.1978 -3.5120 5.8068 -0.4934 1.3627 3.2013 1.8058 4.0821 -9.7227 -5.6805 -5.8085 -9.7941 -4.3603 -6.2377 -8.9352 -6.0091 -4.6653 -9.0575 -3.2777 -5.5287 -8.1388 -4.9475 -3.8900 -4.2050 0.5016 -2.3349 -2.9582 -1.6793 -2.5822 -5.5352 -0.2427 -2.7501 -4.3508 -2.4281 -3.0075 5.7312 1.9658 4.7012 6.2709 1.1232 3.4498 5.3693 0.9877 2.1417 3.6433 1.4692 2.4018 0.9613 1.9971 0.3949 7.4960 -0.8676 1.0210 4.2612 2.7377 6.7907 -2.8516 -0.1629 -2.1924 -8.1197 -3.5442 -4.3450 -5.6686 -1.6796 -3.1119 2.3385 1.0319 1.0978 4.4005 2.1559 5.1351
3.1771 2.4436 7.8194 1.6945 6.4357 -0.7358 7.9778 -2.2930 0.3371 7.6788 1.5711 3.0781 8.4566 -0.0528 1.2734 5.2223 3.5050 7.3124 2.3795 -0.1283 0.6986 1.4269 4.7672 -1.0018 1.0164 3.7590 0.4027 -0.5551 1.0454 -0.0499 -1.2946 0.7442 -1.7402 -7.3326 -2.1988 -3.4992 5.8080 -0.4917 1.3591 3.2039 1.8021 4.0813 -9.7146 -5.6833 -5.8248 -9.7945 -4.3607 -6.2396 -8.9250 -6.0123 -4.6884 -9.0630 -3.2768 -5.5215 -8.1322 -4.9522 -3.9050 -4.2063 0.5013 -2.3314 -2.9602 -1.6804 -2.5790 -5.5405 -0.2402 -2.7427 -4.3580 -2.4282 -2.9999 5.7343 1.9680 4.7016 6.2731 1.1216 3.4502 5.3728 0.9878 2.1412 3.6457 1.4744 2.3995 0.9605 1.9968 0.3967 7.4973 -0.8655 1.0183 4.2657 2.7387 6.7919 -2.8553 -0.1644 -2.1923 -8.1252 -3.5459 -4.3437 -5.6768 -1.6759 -3.1019 2.3382 1.0315 1.0990 4.4043 2.1569 5.1367
3.1774 2.4432 7.8191 1.6942 6.4353 -0.7353 7.9778 -2.2927 0.3374 7.6788 1.5700 3.0790 8.4564 -0.0528 1.2737 5.2227 3.5057 7.3118 2.3793 -0.1284 0.6998 1.4270 4.7666 -1.0016 1.0163 3.7589 0.4028 -0.5556 1.0461 -0.0507 -1.2939 0.7450 -1.7410 -7.3345 -2.1984 -3.4981 5.8083 -0.4914 1.3585 3.2042 1.8015 4.0811 -9.7137 -5.6836 -5.8264 -9.7940 -4.3612 -6.2402 -8.9245 -6.0129 -4.6890 -9.0632 -3.2772 -5.5213 -8.1326 -4.9521 -3.9054 -4.2061 0.5015 -2.3315 -2.9602 -1.6809 -2.5788 -5.5410 -0.2398 -2.7422 -4.3587 -2.4284 -2.9993 5.7345 1.9684 4.7019 6.2734 1.1210 3.4508 5.3734 0.9879 2.1412 3.6463 1.4757 2.3989 0.9605 1.9968 0.3968 7.4974 -0.8655 1.0183 4.2661 2.7392 6.7921 -2.8555 -0.1649 -2.1932 -8.1261 -3.5460 -4.3444 -5.6776 -1.6755 -3.1010 2.3382 1.0314 1.0991 4.4046 2.1572 5.1372
3.1793 2.4419 7.8188 1.6927 6.4349 -0.7336 7.9779 -2.2916 0.3370 7.6791 1.5676 3.0800 8.4563 -0.0520 1.2734 5.2248 3.5068 7.3106 2.3786 -0.1289 0.7024 1.4264 4.7657 -1.0006 1.0159 3.7590 0.4037 -0.5579 1.0484 -0.0510 -1.2929 0.7467 -1.7417 -7.3387 -2.1995 -3.4936 5.8088 -0.4906 1.3567 3.2054 1.7998 4.0806 -9.7111 -5.6840 -5.8329 -9.7929 -4.3619 -6.2425 -8.9216 -6.0139 -4.6962 -9.0640 -3.2777 -5.5197 -8.1317 -4.9527 -3.9091 -4.2068 0.5020 -2.3301 -2.9611 -1.6813 -2.5774 -5.5428 -0.2391 -2.7394 -4.3606 -2.4289 -2.9972 5.7360 1.9693 4.7020 6.2742 1.1201 3.4512 5.3747 0.9880 2.1409 3.6472 1.4780 2.3977 0.9596 1.9972 0.3977 7.4977 -0.8649 1.0174 4.2680 2.7397 6.7924 -2.8568 -0.1656 -2.1932 -8.1281 -3.5470 -4.3442 -5.6800 -1.6749 -3.0973 2.3379 1.0314 1.0996 4.4064 2.1578 5.1378
3.1900 2.4317 7.8220 1.6803 6.4375 -0.7200 7.9856 -2.2775 0.3238 7.6820 1.5736 3.0740 8.4591 -0.0407 1.2633 5.2327 3.5025 7.3116 2.3801 -0.1282 0.7041 1.4164 4.7675 -0.9897 1.0102 3.7584 0.4139 -0.5595 1.0456 -0.0469 -1.2947 0.7463 -1.7394 -7.3434 -2.2157 -3.4737 5.8126 -0.4841 1.3499 3.2102 1.7956 4.0824 -9.7134 -5.6714 -5.8628 -9.8225 -4.3393 -6.2301 -8.8956 -6.0212 -4.7565 -9.0922 -3.2646 -5.4906 -8.1092 -4.9742 -3.9537 -4.2111 0.4968 -2.3182 -2.9634 -1.6832 -2.5711 -5.5488 -0.2443 -2.7236 -4.3637 -2.4348 -2.9857 5.7419 1.9700 4.7004 6.2793 1.1238 3.4470 5.3775 0.9913 2.1382 3.6495 1.4799 2.3982 0.9569 1.9957 0.4039 7.5017 -0.8547 1.0070 4.2764 2.7345 6.7944 -2.8614 -0.1697 -2.1877 -8.1295 -3.5523 -4.3430 -5.6847 -1.6817 -3.0821 2.3381 1.0320 1.1022 4.4127 2.1549 5.1388
3.2678 2.3463 7.8475 1.5751 6.4608 -0.6054 8.0411 -2.1610 0.2160 7.7066 1.6328 3.0320 8.4859 0.0684 1.1847 5.2843 3.4603 7.3266 2.4008 -0.1183 0.7092 1.3302 4.7854 -0.8988 0.9605 3.7492 0.4928 -0.5659 1.0165 -0.0119 -1.3111 0.7299 -1.7022 -7.3468 -2.3628 -3.3489 5.8497 -0.4219 1.2955 3.2472 1.7660 4.0981 -9.7857 -5.5387 -6.0642 -10.0517 -4.1825 -6.1260 -8.7734 -6.0081 -5.1745 -9.2915 -3.1984 -5.2796 -7.9610 -5.0548 -4.2826 -4.2449 0.4232 -2.2132 -2.9543 -1.7210 -2.5438 -5.5800 -0.3294 -2.6009 -4.3505 -2.4984 -2.9350 5.7848 1.9772 4.6894 6.3179 1.1566 3.4152 5.4024 1.0317 2.1142 3.6684 1.4919 2.4007 0.9391 1.9847 0.4489 7.5416 -0.7578 0.9260 4.3346 2.6880 6.8124 -2.8791 -0.2129 -2.1350 -8.1489 -3.5941 -4.3598 -5.6989 -1.7797 -2.9931 2.3456 1.0346 1.1194 4.4599 2.1363 5.1464
3.2683 2.3463 7.8471 1.5749 6.4605 -0.6051 8.0411 -2.1608 0.2164 7.7066 1.6320 3.0327 8.4858 0.0686 1.1850 5.2847 3.4613 7.3259 2.4006 -0.1183 0.7102 1.3303 4.7849 -0.8987 0.9606 3.7492 0.4926 -0.5663 1.0173 -0.0129 -1.3107 0.7305 -1.7027 -7.3495 -2.3606 -3.3492 5.8501 -0.4215 1.2946 3.2476 1.7658 4.0977 -9.7850 -5.5388 -6.0655 -10.0509 -4.1825 -6.1275 -8.7733 -6.0084 -5.1742 -9.2918 -3.1983 -5.2792 -7.9606 -5.0553 -4.2828 -4.2452 0.4242 -2.2132 -2.9550 -1.7210 -2.5430 -5.5805 -0.3303 -2.5995 -4.3505 -2.4988 -2.9355 5.7854 1.9779 4.6895 6.3181 1.1554 3.4160 5.4027 1.0318 2.1141 3.6688 1.4931 2.4003 0.9385 1.9853 0.4493 7.5416 -0.7577 0.9260 4.3349 2.6879 6.8125 -2.8792 -0.2137 -2.1347 -8.1486 -3.5965 -4.3600 -5.6990 -1.7794 -2.9928 2.3456 1.0348 1.1195 4.4600 2.1350 5.1473
3.2775 2.3422 7.8475 1.5672 6.4612 -0.5961 8.0440 -2.1520 0.2089 7.7085 1.6335 3.0302 8.4872 0.0764 1.1792 5.2913 3.4615 7.3242 2.3996 -0.1180 0.7144 1.3245 4.7850 -0.8928 0.9577 3.7486 0.4969 -0.5697 1.0176 -0.0104 -1.3127 0.7289 -1.6975 -7.3571 -2.3691 -3.3366 5.8537 -0.4162 1.2873 3.2517 1.7603 4.0989 -9.7832 -5.5321 -6.0887 -10.0601 -4.1739 -6.1291 -8.7630 -6.0065 -5.2079 -9.3028 -3.1936 -5.2695 -7.9505 -5.0598 -4.3081 -4.2490 0.4231 -2.2047 -2.9577 -1.7298 -2.5329 -5.5849 -0.3361 -2.5866 -4.3544 -2.5066 -2.9264 5.7897 1.9794 4.6882 6.3213 1.1562 3.4138 5.4049 1.0349 2.1117 3.6716 1.4980 2.3992 0.9367 1.9863 0.4537 7.5446 -0.7501 0.9193 4.3410 2.6847 6.8140 -2.8823 -0.2194 -2.1278 -8.1529 -3.5993 -4.3609 -5.7018 -1.7837 -2.9822 2.3452 1.0362 1.1218 4.4641 2.1322 5.1490
3.2814 2.3401 7.8474 1.5642 6.4613 -0.5920 8.0448 -2.1485 0.2057 7.7090 1.6332 3.0290 8.4874 0.0793 1.1767 5.2947 3.4617 7.3230 2.3988 -0.1177 0.7165 1.3223 4.7849 -0.8898 0.9563 3.7482 0.4994 -0.5714 1.0184 -0.0095 -1.3135 0.7295 -1.6960 -7.3613 -2.3733 -3.3298 5.8546 -0.4146 1.2842 3.2538 1.7587 4.0988 -9.7792 -5.5312 -6.0994 -10.0622 -4.1720 -6.1288 -8.7566 -6.0051 -5.2261 -9.3070 -3.1937 -5.2626 -7.9460 -5.0606 -4.3202 -4.2508 0.4219 -2.2004 -2.9596 -1.7300 -2.5298 -5.5869 -0.3383 -2.5811 -4.3575 -2.5081 -2.9218 5.7912 1.9792 4.6881 6.3227 1.1561 3.4132 5.4062 1.0360 2.1107 3.6724 1.5000 2.3984 0.9357 1.9865 0.4553 7.5451 -0.7478 0.9166 4.3440 2.6837 6.8143 -2.8844 -0.2206 -2.1249 -8.1550 -3.6010 -4.3608 -5.7043 -1.7842 -2.9764 2.3450 1.0368 1.1228 4.4662 2.1312 5.1493
3.2833 2.3425 7.8465 1.5648 6.4594 -0.5936 8.0451 -2.1496 0.2083 7.7093 1.6318 3.0299 8.4875 0.0791 1.1778 5.2960 3.4650 7.3212 2.3985 -0.1189 0.7196 1.3232 4.7828 -0.8910 0.9568 3.7471 0.4985 -0.5726 1.0192 -0.0101 -1.3129 0.7281 -1.6953 -7.3675 -2.3704 -3.3278 5.8552 -0.4150 1.2840 3.2552 1.7586 4.0982 -9.7755 -5.5332 -6.1054 -10.0565 -4.1728 -6.1410 -8.7574 -6.0073 -5.2220 -9.3031 -3.1943 -5.2729 -7.9496 -5.0605 -4.3147 -4.2510 0.4221 -2.2010 -2.9624 -1.7307 -2.5265 -5.5885 -0.3376 -2.5802 -4.3620 -2.5079 -2.9169 5.7927 1.9814 4.6881 6.3235 1.1557 3.4141 5.4071 1.0357 2.1108 3.6737 1.5016 2.3977 0.9357 1.9860 0.4556 7.5455 -0.7488 0.9178 4.3453 2.6861 6.8140 -2.8860 -0.2218 -2.1232 -8.1579 -3.5995 -4.3624 -5.7083 -1.7830 -2.9712 2.3452 1.0365 1.1235 4.4676 2.1328 5.1494
3.2832 2.3528 7.8459 1.5705 6.4569 -0.6005 8.0458 -2.1541 0.2181 7.7095 1.6297 3.0338 8.4889 0.0760 1.1846 5.2951 3.4718 7.3201 2.3981 -0.1211 0.7239 1.3281 4.7800 -0.8961 0.9595 3.7464 0.4953 -0.5716 1.0195 -0.0145 -1.3086 0.7248 -1.6987 -7.3701 -2.3635 -3.3355 5.8561 -0.4169 1.2880 3.2553 1.7615 4.0978 -9.7774 -5.5403 -6.0964 -10.0437 -4.1736 -6.1644 -8.7825 -6.0091 -5.1905 -9.2909 -3.1926 -5.3018 -7.9776 -5.0586 -4.2843 -4.2448 0.4215 -2.2125 -2.9623 -1.7348 -2.5234 -5.5839 -0.3359 -2.5924 -4.3631 -2.5096 -2.9154 5.7917 1.9828 4.6905 6.3230 1.1542 3.4180 5.4072 1.0330 2.1143 3.6739 1.5026 2.3979 0.9377 1.9850 0.4535 7.5467 -0.7511 0.9240 4.3445 2.6924 6.8146 -2.8817 -0.2253 -2.1278 -8.1635 -3.5962 -4.3638 -5.7067 -1.7806 -2.9772 2.3464 1.0364 1.1248 4.4672 2.1361 5.1502
3.2945 2.3449 7.8470 1.5602 6.4590 -0.5884 8.0500 -2.1416 0.2055 7.7134 1.6296 3.0314 8.4898 0.0853 1.1750 5.3034 3.4691 7.3185 2.3982 -0.1209 0.7275 1.3200 4.7814 -0.8867 0.9544 3.7455 0.5031 -0.5772 1.0194 -0.0070 -1.3126 0.7240 -1.6914 -7.3751 -2.3806 -3.3174 5.8593 -0.4101 1.2789 3.2606 1.7583 4.0978 -9.7753 -5.5287 -6.1274 -10.0558 -4.1655 -6.1579 -8.7640 -6.0064 -5.2431 -9.3061 -3.1906 -5.2794 -7.9612 -5.0643 -4.3255 -4.2516 0.4177 -2.1985 -2.9667 -1.7378 -2.5141 -5.5906 -0.3417 -2.5768 -4.3685 -2.5134 -2.9035 5.7972 1.9831 4.6884 6.3270 1.1549 3.4148 5.4098 1.0368 2.1107 3.6763 1.5058 2.3966 0.9337 1.9850 0.4597 7.5493 -0.7423 0.9141 4.3534 2.6886 6.8150 -2.8882 -0.2271 -2.1181 -8.1648 -3.6023 -4.3647 -5.7121 -1.7862 -2.9620 2.3455 1.0368 1.1274 4.4738 2.1343 5.1502
3.3046 2.3382 7.8471 1.5523 6.4600 -0.5775 8.0526 -2.1324 0.1968 7.7150 1.6281 3.0293 8.4901 0.0929 1.1681 5.3108 3.4681 7.3164 2.3971 -0.1191 0.7318 1.3142 4.7822 -0.8786 0.9510 3.7455 0.5086 -0.5831 1.0219 -0.0023 -1.3152 0.7232 -1.6869 -7.3806 -2.3951 -3.3027 5.8611 -0.4045 1.2713 3.2652 1.7543 4.0976 -9.7706 -5.5203 -6.1526 -10.0623 -4.1585 -6.1570 -8.7502 -6.0031 -5.2828 -9.3154 -3.1897 -5.2655 -7.9492 -5.0694 -4.3548 -4.2566 0.4149 -2.1880 -2.9717 -1.7401 -2.5057 -5.5968 -0.3449 -2.5631 -4.3743 -2.5181 -2.8929 5.8016 1.9831 4.6875 6.3303 1.1549 3.4128 5.4126 1.0395 2.1081 3.6783 1.5099 2.3952 0.9305 1.9863 0.4643 7.5508 -0.7357 0.9064 4.3610 2.6855 6.8152 -2.8933 -0.2294 -2.1115 -8.1671 -3.6071 -4.3665 -5.7169 -1.7916 -2.9481 2.3449 1.0383 1.1297 4.4794 2.1324 5.1503
3.3677 2.3849 7.9096 1.5817 6.4480 -0.5980 8.1353 -2.0921 0.2734 7.7447 1.6480 3.0809 8.5326 0.1217 1.2292 5.3251 3.5529 7.3249 2.4351 -0.1317 0.7695 1.3547 4.7630 -0.8942 0.9751 3.7285 0.4948 -0.5634 1.0019 -0.0177 -1.2565 0.6352 -1.7175 -7.3929 -2.3156 -3.5148 5.9094 -0.3886 1.3199 3.2955 1.7481 4.1376 -10.0074 -5.5747 -6.0366 -10.3627 -4.2142 -5.9893 -8.8308 -6.0216 -5.3083 -9.5093 -3.2295 -5.1866 -7.9450 -5.0695 -4.4863 -4.1585 0.4211 -2.4828 -3.0186 -1.8353 -2.3530 -5.5200 -0.3080 -2.8893 -4.4391 -2.5764 -2.7682 5.8244 2.0256 4.7265 6.3568 1.1761 3.4659 5.4440 1.0570 2.1506 3.7024 1.5278 2.4235 0.9524 1.9657 0.4623 7.6097 -0.7061 0.9686 4.3887 2.7440 6.8484 -2.8508 -0.2811 -2.1647 -8.2347 -3.6073 -4.4412 -5.7251 -1.7939 -3.0770 2.3744 1.0317 1.1542 4.5052 2.1641 5.1859
3.9740 6.9526 3.4626 0.2487 -1.2659 6.5507 8.0845 -1.1962 -0.8664 7.6138 1.4074 3.1209 8.3304 -0.4396 1.4682 5.7022 6.0568 4.7786 2.4042 0.1269 0.3592 0.2319 -1.3993 4.8732 0.3257 0.1179 3.9034 -0.7540 0.1755 0.9042 -1.8237 -1.2847 0.3668 -7.1937 -1.7823 -3.7649 5.8625 0.2491 0.5771 3.4429 3.2441 2.7524 -9.1273 -3.9434 -7.5583 -9.7990 -3.8409 -6.3422 -7.8161 -3.3774 -7.6726 -9.1730 -3.1622 -5.1760 -7.1240 -2.6590 -6.4853 -4.6278 -1.1223 -0.4491 -3.0646 -1.9279 -2.2633 -5.7974 -1.2697 -1.4690 -4.3186 -2.0653 -3.2931 5.9482 3.3844 3.1936 6.3862 2.0719 2.4388 5.2973 1.0037 2.0259 3.6337 1.6417 2.1538 0.5745 0.1848 2.1673 7.4827 -0.4471 0.4893 4.7935 5.6892 3.8480 -3.1714 -1.3998 -0.7776 -7.7724 -2.5947 -5.1936 -5.6920 -1.7449 -2.8667 2.2039 0.5977 1.5143 4.7144 4.0189 3.2298

$$$$
CHEMBL400553
 OpenBabel02201516203D

 23 23  0  0  1  0  0  0  0  0999 V2000
    0.7021   -5.7086   -2.8399 O   0  0  0  0  0
    1.1188   -0.3292   -2.5702 C   0  0  0  0  0
   -3.0467   -0.0444   -1.1711 C   0  0  0  0  0
   -5.2957   -5.2697    1.0812 C   0  0  0  0  0
   -3.9447   -3.2387    3.2994 C   0  0  0  0  0
   -0.6977   -1.8168    1.1171 C   0  0  0  0  0
   -1.8681   -3.5777    2.2305 O   0  0  0  0  0
   -0.6925   -6.9553   -3.8199 O   0  0  0  0  0
    0.2290   -0.3546   -1.3257 C   0  0  0  0  0
   -0.6758   -1.5875   -1.3708 C   0  0  0  0  0
   -2.1955   -6.2867   -1.2516 C   0  0  0  0  0
   -3.4588   -2.7507    0.9236 N   0  0  0  0  0
   -2.2689   -0.3737   -0.0184 O   0  0  0  0  0
   -1.0648   -4.1903   -1.5606 N   0  0  0  0  0
   -4.0732   -5.8481    1.7461 C   0  0  0  0  0
   -2.9232   -5.8454    1.1187 C   0  0  0  0  0
   -2.8228   -5.2640   -0.2680 C   0  0  0  0  0
   -1.5784   -5.3529   -2.3225 C   0  0  0  0  0
   -2.5702   -2.7612   -0.2410 C   0  0  0  0  0
   -1.8186   -4.0927   -0.2971 C   0  0  0  0  0
   -3.0153   -3.2017    2.1137 C   0  0  0  0  0
   -0.4512   -6.0500   -3.0398 C   0  0  0  0  0
   -1.5656   -1.6129   -0.1264 C   0  0  0  0  0
  1 22  1  0  0  0
  2  9  1  0  0  0
  3 13  1  0  0  0
  4 15  1  0  0  0
  5 21  1  0  0  0
  6 23  1  0  0  0
  7 21  2  0  0  0
  8 22  2  0  0  0
  9 10  1  0  0  0
 10 23  1  0  0  0
 11 17  1  0  0  0
 11 18  1  0  0  0
 12 19  1  0  0  0
 12 21  1  0  0  0
 13 23  1  0  0  0
 14 18  1  0  0  0
 14 20  1  0  0  0
 15 16  2  0  0  0
 16 17  1  0  0  0
 17 20  1  0  0  0
 18 22  1  0  0  0
 19 20  1  0  0  0
 19 23  1  0  0  0
M  CHG  2  11   1  14  -1
M  END

>  <MOLID> (CHEMBL400553)
CHEMBL400553

>  <SMILES_CANONICAL> (CHEMBL400553)
CCC[C@]([C@@H]([C@@H]1[N-][C@H]([CH+][C@H]1/C=C\C)C(=O)O)NC(=O)C)(OC)C	CHEMBL400553

>  <FINGERPRINT> (CHEMBL400553)
0000000000000001000000000000000000001001000000000111000000000000000000000001000000000001000000000000010000000001000001010000000000000000000010000000000010000000000000000000000000000000000100000000000000001000000000000000000000100000000000000000010000001000000100000000000000000000000000000000000000010000100000001000100000000000001000000000000000000000010000000000000110110000000000000000011000000010100000000001101000000001100000000010000000000001100000000001100000010100000000000000000000001000000000000000100000010000101000000100000000000000000000000000000000000000010000000000000011000000001000000000000000000000000000000000001000000001000000000000000000000000000000000011000000000100000011100011000000010011000000001000000010000001000000100001000000000000000110000000000000000000000000000000000100000000000000000000000000000000000000001100000001000000000000001001000000000000000000000000000100001100000000000000001000000000000000000000010000000100000000010010010000000010010000000000000000000000000000000010001000000000

>  <MACCS166> (CHEMBL400553)
000000000000000000000000000000000000000000000000000000000000000001000000000000100010000001111011101000000001010101111101101001000011000110111100011011110111111110011000

>  <OB_MW> (CHEMBL400553)
324.205

>  <OB_logP> (CHEMBL400553)
2.0234

>  <OB_PSA> (CHEMBL400553)
75.63

>  <OB_MR> (CHEMBL400553)
92.3885

>  <OB_ATOMIC_CHARGES> (CHEMBL400553)
-0.2440031967 8.21754e-05 0.1739572803 0.0304928039 0.0964232482 0.0313103609 -0.2733300397 -0.2440031967 0.0024657909 0.028846518 0.318294422 -0.2073913726 -0.3542673507 -0.2367681403 -0.0260617067 0.0195841056 0.1927359325 0.0649077385 0.087450212 -0.1859740301 0.2418189999 0.3747039994 0.1087254461

>  <MCT_HBD> (CHEMBL400553)
2

>  <MCT_HBA> (CHEMBL400553)
6

>  <ENSEMBLE_TOTAL> (CHEMBL400553)
50

>  <ENSEMBLE_RMSD> (CHEMBL400553)
0.000 1.328 1.389 1.419 1.524 1.526 1.932 1.950 2.052 2.142 2.271 2.323 2.324 2.325 2.325 2.329 2.375 2.431 2.431 2.432 2.433 2.434 2.434 2.435 2.435 2.435 2.436 2.437 2.437 2.438 2.459 2.561 2.724 2.725 2.726 2.727 2.728 2.729 2.729 2.730 2.730 2.730 2.730 2.731 2.731 2.731 2.732 2.771 2.780 2.837

>  <ENSEMBLE_COORDS> (CHEMBL400553)
2.6142 -2.1211 -2.4663 3.0309 3.2583 -2.1966 -1.1346 3.5431 -0.7975 -3.3836 -1.6822 1.4548 -2.0326 0.3488 3.6730 1.2144 1.7707 1.4907 0.0440 0.0098 2.6041 1.2196 -3.3678 -3.4463 2.1411 3.2329 -0.9521 1.2363 2.0000 -0.9972 -0.2834 -2.6992 -0.8780 -1.5467 0.8368 1.2972 -0.3568 3.2138 0.3552 0.8473 -0.6028 -1.1870 -2.1611 -2.2606 2.1197 -1.0111 -2.2579 1.4923 -0.9107 -1.6765 0.1056 0.3337 -1.7654 -1.9489 -0.6581 0.8263 0.1326 0.0935 -0.5052 0.0765 -1.1032 0.3858 2.4873 1.4609 -2.4625 -2.6662 0.3465 1.9746 0.2472
2.6995 -2.1068 -2.7076 2.8870 3.3077 -2.6084 1.0687 3.6637 1.5713 -1.9617 -3.0166 3.6286 -3.3014 0.5038 2.8929 1.4024 1.9230 1.2486 -3.0032 0.7260 0.4724 1.0212 -3.3502 -3.6425 1.7036 3.4172 -1.5572 1.3782 2.0549 -0.9907 0.0071 -2.7242 -0.7502 -0.9198 0.8076 1.6290 0.0554 3.1744 0.5108 0.6730 -0.7177 -1.2562 -2.0095 -2.2792 2.3349 -0.8102 -2.2815 1.4622 -0.7420 -1.6318 0.1260 0.4340 -1.9443 -1.7584 -0.3450 0.8299 0.2594 0.1529 -0.5498 0.1043 -2.3773 0.7190 1.5468 1.3942 -2.4908 -2.7449 0.5927 1.9658 0.2290
3.2846 -3.0072 -2.0245 2.3145 3.8830 -3.4423 0.2241 4.6260 0.6242 -5.1582 -3.4899 0.8477 -1.9220 0.8295 4.1758 1.7254 2.7492 0.8193 0.3685 -0.0317 4.6436 1.7006 -3.4050 -3.6384 1.2691 3.8492 -2.2018 0.9839 2.3114 -1.5287 -0.0183 -2.9167 -0.5613 0.3027 0.8899 2.2361 -0.4247 3.4421 0.0923 0.8606 -0.8044 -1.0642 -3.6759 -3.2585 0.7853 -2.6629 -2.1803 -0.0775 -1.0500 -1.8492 0.2847 0.6556 -2.1326 -1.6431 -0.2857 0.9608 0.7115 -0.4578 -0.4440 -0.2436 -0.4245 0.5166 3.6870 1.9140 -2.8839 -2.4825 0.4764 2.3457 0.0003
1.1383 -1.7354 -4.0188 2.9547 3.2793 -2.5787 1.0890 3.8521 1.5530 -2.8537 -3.0883 3.0534 -3.2828 0.7154 3.0339 1.4938 1.8683 1.4113 -3.2632 1.2898 0.6726 1.9755 -3.6687 -3.1661 1.7809 3.3797 -1.5205 1.5279 1.9829 -0.8746 -0.0934 -2.7381 -0.8477 -1.0125 0.7972 1.5462 0.1623 3.1724 0.5622 0.7686 -0.7577 -1.2327 -1.4075 -2.7279 2.6285 -0.6753 -2.3554 1.5714 -0.6795 -1.7053 0.1464 0.9792 -2.1594 -1.4622 -0.3666 0.8181 0.3141 0.2573 -0.6026 0.1350 -2.5143 0.9551 1.6114 1.3315 -2.5465 -2.8880 0.6899 1.9749 0.3498
1.1709 -1.7083 -4.0217 3.0785 3.2561 -2.5051 1.0472 3.9465 1.5271 -1.9212 -3.5863 3.7304 -3.4128 0.8445 2.8885 1.5171 1.8183 1.4745 -3.2928 1.4241 0.5336 1.8765 -3.6939 -3.1876 1.8873 3.3736 -1.4794 1.5869 1.9717 -0.8394 -0.2203 -2.7009 -0.9215 -1.0749 0.8563 1.5223 0.1754 3.2250 0.5303 0.8054 -0.7524 -1.2245 -1.9647 -2.8555 2.3405 -0.7267 -2.3730 1.5707 -0.7406 -1.6762 0.1413 0.9696 -2.1569 -1.4516 -0.4028 0.8641 0.2800 0.2294 -0.5847 0.1200 -2.6172 1.0669 1.5319 1.3275 -2.5600 -2.9224 0.7022 2.0011 0.3622
1.1653 -1.7132 -4.0242 3.0715 3.2765 -2.5080 1.0221 3.9795 1.5106 -1.9139 -3.5933 3.7359 -3.4233 0.8483 2.8788 1.5409 1.8028 1.4893 -3.2940 1.4247 0.5295 1.8622 -3.7054 -3.1923 1.8859 3.3807 -1.4779 1.5909 1.9709 -0.8502 -0.2408 -2.7093 -0.9334 -1.0754 0.8644 1.5494 0.1770 3.2327 0.5333 0.8417 -0.7543 -1.2221 -1.9689 -2.8525 2.3380 -0.7311 -2.3851 1.5771 -0.7513 -1.6854 0.1412 0.9928 -2.1636 -1.4419 -0.4076 0.8655 0.2785 0.2357 -0.5834 0.1144 -2.6328 1.0715 1.5464 1.3423 -2.5745 -2.9361 0.7108 2.0026 0.3637
0.3456 -2.2232 -4.2790 4.0834 3.2354 -1.8517 0.6389 4.4610 0.9830 -0.8962 -4.1479 4.1731 -3.2687 1.0601 3.1044 -0.2504 3.2439 -0.7187 -4.1770 0.7503 0.8164 1.9849 -3.5030 -3.3423 3.0475 3.2449 -0.6158 1.8825 2.0377 -0.7079 -0.2949 -2.7719 -0.8197 -1.7364 1.4250 0.7130 0.9241 3.0474 1.2195 0.5329 -0.7139 -1.3536 -1.1079 -3.6757 2.7497 -0.2075 -2.5850 1.8471 -0.6767 -1.8159 0.4825 0.7579 -2.1202 -1.5728 -0.3052 0.9349 0.5486 0.1147 -0.5152 0.1206 -3.0199 0.9924 1.5067 1.0382 -2.6419 -3.0965 0.5901 2.2809 0.0933
0.3369 -2.2406 -4.2858 4.0740 3.2484 -1.8662 0.6701 4.4634 1.0242 -0.8200 -4.1625 4.1934 -3.2674 1.0611 3.1027 -0.2504 3.2507 -0.7143 -4.1879 0.7348 0.8240 1.9947 -3.5082 -3.3436 3.0396 3.2519 -0.6302 1.8970 2.0311 -0.7100 -0.3118 -2.7885 -0.8180 -1.7906 1.4554 0.6414 0.9515 3.0442 1.2393 0.5183 -0.6995 -1.3710 -1.1026 -3.6775 2.7458 -0.2088 -2.5905 1.8712 -0.6892 -1.8313 0.4768 0.7697 -2.1236 -1.5735 -0.3050 0.9502 0.5911 0.1176 -0.5193 0.1104 -3.0787 1.0122 1.4927 1.0484 -2.6575 -3.1085 0.5946 2.2955 0.1080
0.3334 -2.1817 -4.3734 4.0600 3.4048 -2.0669 0.9050 4.4420 1.1605 -0.9440 -4.6618 4.1350 -3.2710 1.2176 3.1082 -0.1565 3.2762 -0.6681 -4.3909 1.3211 0.8890 1.9808 -3.4793 -3.4271 3.0828 3.3489 -0.7715 2.0196 2.0224 -0.7156 -0.4495 -2.8108 -0.8881 -1.8535 1.4854 0.5172 1.1259 3.0100 1.3230 0.5828 -0.7228 -1.2837 -1.2013 -3.9650 2.7556 -0.2249 -2.8944 1.8962 -0.7143 -1.9689 0.5572 0.7167 -2.1559 -1.5984 -0.2995 0.9672 0.7219 0.1737 -0.6203 0.2448 -3.2020 1.3107 1.4963 1.0358 -2.6408 -3.1869 0.6908 2.2955 0.1749
0.3274 -2.1181 -4.4241 4.0693 3.4988 -2.1966 1.1375 4.3963 1.2860 -1.1097 -5.0637 4.0547 -3.3106 1.3803 3.0764 -0.0484 3.3419 -0.6064 -4.4442 1.8531 0.9038 1.9714 -3.4284 -3.5192 3.1361 3.3967 -0.8462 2.0890 2.0144 -0.7077 -0.5671 -2.8000 -0.9490 -1.8994 1.5148 0.4507 1.2130 2.9469 1.4018 0.6517 -0.7914 -1.1747 -1.1853 -4.2455 2.7952 -0.1920 -3.1362 1.8706 -0.7464 -2.0643 0.6347 0.6506 -2.1946 -1.6006 -0.3633 0.9754 0.7230 0.1251 -0.7113 0.3683 -3.2534 1.5729 1.4799 1.0076 -2.6110 -3.2353 0.7411 2.2729 0.2147
0.1589 -2.1325 -4.4728 4.1503 3.5623 -2.1786 1.2996 4.3348 1.3966 -1.3431 -5.3956 3.9591 -3.4625 1.6622 2.9745 0.0671 3.3852 -0.5531 -4.4746 2.3355 0.7991 1.9544 -3.3327 -3.6888 3.2051 3.4027 -0.8141 2.1585 1.9849 -0.6623 -0.5604 -2.8665 -0.9260 -1.9730 1.5645 0.3686 1.2426 2.8673 1.4977 0.6868 -0.8412 -1.1114 -0.3143 -4.5924 2.9088 -0.7682 -3.2464 1.9366 -0.6776 -2.1891 0.6822 0.6340 -2.2248 -1.6296 -0.4415 0.9817 0.7089 0.0966 -0.7855 0.4676 -3.3321 1.8697 1.3854 0.9351 -2.5764 -3.3146 0.7585 2.2322 0.2663
0.1605 -2.0698 -4.5317 4.1596 3.6121 -2.2152 1.3767 4.3285 1.4147 -0.8681 -5.4773 4.1138 -3.4583 1.7261 2.9640 0.0960 3.3981 -0.5293 -4.4616 2.5526 0.8259 1.9494 -3.3347 -3.6931 3.2140 3.4389 -0.8458 2.1874 1.9884 -0.6781 -0.6261 -2.9122 -0.9216 -2.0320 1.5506 0.3174 1.2774 2.8690 1.5271 0.7139 -0.8663 -1.0536 -1.0382 -4.8253 2.6355 -0.4137 -3.3203 2.0999 -0.8293 -2.2204 0.6589 0.5990 -2.2522 -1.6342 -0.4415 0.9832 0.7491 0.0775 -0.8096 0.4866 -3.3458 1.9648 1.3692 0.9292 -2.5765 -3.3426 0.7741 2.2522 0.2833
0.1598 -2.0706 -4.5319 4.1600 3.6146 -2.2150 1.3786 4.3294 1.4155 -0.8537 -5.4794 4.1170 -3.4564 1.7265 2.9640 0.0941 3.4017 -0.5244 -4.4600 2.5554 0.8285 1.9534 -3.3348 -3.6913 3.2133 3.4406 -0.8472 2.1886 1.9891 -0.6784 -0.6357 -2.9222 -0.9200 -2.0361 1.5473 0.3132 1.2786 2.8698 1.5303 0.7169 -0.8659 -1.0522 -1.0406 -4.8239 2.6336 -0.4159 -3.3209 2.0990 -0.8358 -2.2224 0.6554 0.5950 -2.2568 -1.6361 -0.4419 0.9826 0.7512 0.0787 -0.8054 0.4792 -3.3485 1.9655 1.3683 0.9305 -2.5795 -3.3452 0.7772 2.2593 0.2867
0.1597 -2.0707 -4.5317 4.1601 3.6159 -2.2155 1.3809 4.3302 1.4161 -0.8439 -5.4806 4.1190 -3.4543 1.7266 2.9645 0.0921 3.4053 -0.5195 -4.4583 2.5578 0.8319 1.9565 -3.3348 -3.6898 3.2128 3.4416 -0.8482 2.1893 1.9900 -0.6788 -0.6425 -2.9313 -0.9184 -2.0396 1.5440 0.3102 1.2797 2.8706 1.5329 0.7190 -0.8653 -1.0516 -1.0420 -4.8225 2.6322 -0.4181 -3.3219 2.0980 -0.8415 -2.2242 0.6521 0.5919 -2.2605 -1.6379 -0.4425 0.9819 0.7519 0.0798 -0.8015 0.4727 -3.3505 1.9662 1.3685 0.9316 -2.5815 -3.3475 0.7796 2.2649 0.2889
0.1595 -2.0706 -4.5314 4.1597 3.6167 -2.2164 1.3836 4.3305 1.4169 -0.8373 -5.4811 4.1202 -3.4518 1.7265 2.9657 0.0904 3.4088 -0.5143 -4.4565 2.5603 0.8363 1.9586 -3.3349 -3.6887 3.2124 3.4424 -0.8493 2.1897 1.9907 -0.6796 -0.6461 -2.9397 -0.9170 -2.0431 1.5406 0.3078 1.2813 2.8713 1.5350 0.7199 -0.8645 -1.0521 -1.0432 -4.8213 2.6306 -0.4210 -3.3232 2.0967 -0.8465 -2.2261 0.6490 0.5899 -2.2632 -1.6391 -0.4431 0.9814 0.7524 0.0806 -0.7981 0.4668 -3.3517 1.9672 1.3698 0.9334 -2.5831 -3.3492 0.7812 2.2694 0.2900
3.3855 -4.4410 -1.9472 0.5149 6.0698 -3.2357 2.5348 4.4800 0.4639 -5.7159 -4.6474 0.6789 -1.3075 0.9645 4.8633 0.0186 3.9535 0.8890 1.1897 0.7878 5.1363 1.9981 -4.0413 -3.8677 0.9732 4.8092 -2.0176 0.0401 3.3361 -1.5535 -0.3564 -3.3344 -0.6578 0.6192 0.7920 2.3706 2.1343 3.0638 0.0320 0.8369 -1.1502 -1.1628 -4.7301 -3.4653 -0.2648 -3.3244 -2.5619 -0.3639 -1.4532 -2.1288 0.0969 0.7621 -2.7029 -1.5822 -0.2198 1.0096 0.7873 -0.5814 -0.5982 -0.2850 0.1589 0.8566 4.1032 2.0471 -3.7342 -2.4842 0.4753 2.6828 0.0010
3.3858 -4.4582 -1.9077 0.4922 6.1108 -3.2330 2.5339 4.4944 0.4071 -5.9245 -4.5750 0.4440 -1.1245 1.0163 4.9837 -0.0386 3.9337 0.8948 1.3901 0.8687 5.1613 2.0643 -4.0547 -3.8716 0.9145 4.8418 -2.0007 -0.0162 3.3605 -1.5382 -0.3931 -3.3566 -0.6892 0.6823 0.8152 2.3908 2.1003 3.0658 -0.0077 0.8095 -1.1684 -1.1404 -4.7926 -3.4841 -0.5468 -3.2768 -2.7739 0.0163 -1.5518 -2.1311 -0.0635 0.7536 -2.7125 -1.5907 -0.2200 0.9880 0.8278 -0.6002 -0.6337 -0.2246 0.3021 0.9073 4.1551 2.0693 -3.7445 -2.4714 0.4405 2.6901 0.0047
3.4054 -4.4438 -1.8902 0.6705 6.2953 -3.1860 2.4965 4.5290 0.2937 -6.2966 -4.5123 -0.1161 -0.9952 1.1630 5.0247 -0.1319 3.9001 0.9404 1.5667 1.0515 5.1444 2.0335 -4.0441 -3.9010 1.0276 4.9840 -1.9898 0.0068 3.5055 -1.6113 -0.5368 -3.5015 -0.6475 0.7558 0.7446 2.3984 2.0496 3.0249 0.0512 0.7703 -1.1685 -1.1899 -4.6075 -4.0895 0.2443 -3.5019 -2.7485 -0.3236 -1.5987 -2.2942 0.0705 0.7449 -2.8049 -1.5236 -0.2162 1.0297 0.8167 -0.6220 -0.6298 -0.3316 0.4462 1.0047 4.2216 2.0989 -3.7922 -2.4961 0.4341 2.7968 0.0010
3.4074 -4.4441 -1.8902 0.6723 6.2961 -3.1863 2.4979 4.5288 0.2954 -6.2974 -4.5124 -0.1155 -0.9941 1.1618 5.0266 -0.1322 3.9003 0.9388 1.5688 1.0498 5.1452 2.0351 -4.0443 -3.9017 1.0262 4.9836 -1.9895 0.0052 3.5049 -1.6112 -0.5350 -3.5005 -0.6457 0.7556 0.7468 2.3981 2.0508 3.0247 0.0478 0.7689 -1.1684 -1.1892 -4.6094 -4.0890 0.2442 -3.5023 -2.7481 -0.3250 -1.5994 -2.2936 0.0708 0.7439 -2.8041 -1.5244 -0.2182 1.0294 0.8170 -0.6235 -0.6303 -0.3307 0.4467 1.0043 4.2216 2.0994 -3.7918 -2.4959 0.4334 2.7962 0.0000
3.4122 -4.4446 -1.8905 0.6772 6.2982 -3.1866 2.5014 4.5281 0.2997 -6.2991 -4.5129 -0.1135 -0.9909 1.1585 5.0315 -0.1331 3.9009 0.9348 1.5745 1.0452 5.1472 2.0389 -4.0447 -3.9033 1.0248 4.9825 -1.9882 0.0012 3.5029 -1.6110 -0.5303 -3.4980 -0.6413 0.7545 0.7528 2.3967 2.0517 3.0256 0.0386 0.7654 -1.1683 -1.1875 -4.6145 -4.0874 0.2440 -3.5032 -2.7470 -0.3292 -1.6009 -2.2923 0.0716 0.7414 -2.8023 -1.5259 -0.2237 1.0282 0.8178 -0.6274 -0.6319 -0.3283 0.4483 1.0028 4.2216 2.1006 -3.7906 -2.4958 0.4308 2.7943 -0.0023
3.4151 -4.4450 -1.8906 0.6804 6.2995 -3.1867 2.5035 4.5277 0.3025 -6.2999 -4.5132 -0.1121 -0.9888 1.1566 5.0345 -0.1334 3.9013 0.9322 1.5780 1.0423 5.1485 2.0413 -4.0450 -3.9042 1.0232 4.9817 -1.9874 -0.0016 3.5015 -1.6109 -0.5271 -3.4964 -0.6383 0.7540 0.7567 2.3958 2.0529 3.0257 0.0328 0.7634 -1.1682 -1.1860 -4.6177 -4.0863 0.2436 -3.5039 -2.7462 -0.3319 -1.6018 -2.2914 0.0720 0.7398 -2.8008 -1.5274 -0.2272 1.0273 0.8185 -0.6298 -0.6330 -0.3267 0.4493 1.0020 4.2214 2.1012 -3.7899 -2.4957 0.4291 2.7930 -0.0037
3.4171 -4.4452 -1.8908 0.6825 6.3004 -3.1868 2.5049 4.5274 0.3043 -6.3002 -4.5135 -0.1111 -0.9874 1.1551 5.0366 -0.1337 3.9016 0.9305 1.5805 1.0404 5.1493 2.0430 -4.0452 -3.9049 1.0225 4.9812 -1.9867 -0.0036 3.5005 -1.6107 -0.5247 -3.4952 -0.6362 0.7534 0.7595 2.3951 2.0538 3.0258 0.0288 0.7617 -1.1681 -1.1853 -4.6199 -4.0856 0.2434 -3.5043 -2.7454 -0.3339 -1.6025 -2.2907 0.0722 0.7387 -2.7998 -1.5281 -0.2297 1.0266 0.8188 -0.6316 -0.6338 -0.3256 0.4501 1.0014 4.2211 2.1016 -3.7894 -2.4955 0.4279 2.7920 -0.0048
3.4202 -4.4456 -1.8910 0.6856 6.3017 -3.1870 2.5071 4.5269 0.3073 -6.3007 -4.5143 -0.1094 -0.9852 1.1531 5.0397 -0.1344 3.9020 0.9277 1.5842 1.0375 5.1506 2.0455 -4.0455 -3.9056 1.0214 4.9804 -1.9855 -0.0057 3.4991 -1.6104 -0.5209 -3.4934 -0.6329 0.7525 0.7637 2.3940 2.0549 3.0260 0.0226 0.7590 -1.1682 -1.1842 -4.6233 -4.0844 0.2429 -3.5050 -2.7443 -0.3368 -1.6035 -2.2897 0.0725 0.7370 -2.7983 -1.5293 -0.2337 1.0254 0.8195 -0.6345 -0.6351 -0.3236 0.4511 1.0008 4.2206 2.1020 -3.7884 -2.4955 0.4264 2.7905 -0.0062
3.4221 -4.4458 -1.8913 0.6878 6.3026 -3.1870 2.5088 4.5265 0.3093 -6.3009 -4.5149 -0.1080 -0.9834 1.1515 5.0419 -0.1346 3.9022 0.9258 1.5868 1.0354 5.1515 2.0472 -4.0457 -3.9064 1.0209 4.9798 -1.9847 -0.0074 3.4981 -1.6100 -0.5179 -3.4921 -0.6303 0.7517 0.7669 2.3929 2.0555 3.0264 0.0183 0.7568 -1.1682 -1.1837 -4.6256 -4.0836 0.2426 -3.5055 -2.7434 -0.3390 -1.6042 -2.2888 0.0727 0.7359 -2.7974 -1.5299 -0.2367 1.0246 0.8198 -0.6364 -0.6360 -0.3222 0.4518 1.0003 4.2202 2.1024 -3.7878 -2.4953 0.4250 2.7893 -0.0071
3.4530 -4.4557 -1.8927 0.7062 6.3025 -3.1848 2.5557 4.5084 0.3478 -6.2274 -4.5724 0.0511 -0.9533 1.1160 5.0742 -0.1166 3.9103 0.8880 1.6050 0.9961 5.1685 2.0930 -4.0604 -3.9000 0.9958 4.9530 -1.9719 -0.0241 3.4706 -1.5891 -0.4492 -3.4250 -0.6351 0.7157 0.8343 2.3695 2.0595 3.0469 -0.0528 0.7374 -1.1801 -1.1655 -4.6989 -4.0238 0.1721 -3.5131 -2.6807 -0.4295 -1.6276 -2.2490 0.0331 0.7224 -2.7718 -1.5505 -0.2738 0.9932 0.8246 -0.6806 -0.6608 -0.2523 0.4380 0.9827 4.1893 2.0840 -3.7686 -2.4659 0.3987 2.7343 -0.0280
3.4264 -4.4464 -1.8917 0.6927 6.3044 -3.1868 2.5124 4.5255 0.3136 -6.3009 -4.5162 -0.1048 -0.9795 1.1483 5.0464 -0.1351 3.9028 0.9220 1.5924 1.0312 5.1531 2.0508 -4.0462 -3.9076 1.0194 4.9784 -1.9828 -0.0116 3.4957 -1.6092 -0.5119 -3.4888 -0.6265 0.7500 0.7738 2.3907 2.0565 3.0275 0.0094 0.7530 -1.1685 -1.1820 -4.6306 -4.0814 0.2417 -3.5065 -2.7411 -0.3437 -1.6056 -2.2871 0.0727 0.7335 -2.7953 -1.5316 -0.2428 1.0223 0.8207 -0.6405 -0.6381 -0.3189 0.4533 0.9993 4.2190 2.1029 -3.7867 -2.4948 0.4219 2.7868 -0.0089
3.4530 -4.4537 -1.8953 0.7136 6.3060 -3.1839 2.5511 4.5100 0.3441 -6.2554 -4.5574 -0.0013 -0.9470 1.1194 5.0762 -0.1239 3.9083 0.8910 1.6156 0.9996 5.1667 2.0857 -4.0582 -3.9040 1.0015 4.9562 -1.9719 -0.0272 3.4736 -1.5936 -0.4513 -3.4339 -0.6243 0.7219 0.8323 2.3691 2.0562 3.0458 -0.0528 0.7322 -1.1787 -1.1674 -4.6856 -4.0424 0.1981 -3.5124 -2.6953 -0.4092 -1.6249 -2.2574 0.0452 0.7203 -2.7720 -1.5499 -0.2774 0.9956 0.8255 -0.6782 -0.6583 -0.2603 0.4462 0.9860 4.1927 2.0887 -3.7677 -2.4702 0.3972 2.7422 -0.0245
3.4339 -4.4477 -1.8930 0.7023 6.3074 -3.1862 2.5195 4.5232 0.3215 -6.2996 -4.5196 -0.0975 -0.9710 1.1419 5.0550 -0.1352 3.9037 0.9146 1.6033 1.0230 5.1561 2.0578 -4.0475 -3.9095 1.0166 4.9755 -1.9788 -0.0198 3.4906 -1.6070 -0.4980 -3.4821 -0.6166 0.7460 0.7879 2.3854 2.0580 3.0302 -0.0077 0.7447 -1.1695 -1.1789 -4.6407 -4.0764 0.2385 -3.5084 -2.7362 -0.3533 -1.6084 -2.2834 0.0718 0.7284 -2.7905 -1.5355 -0.2550 1.0172 0.8224 -0.6489 -0.6423 -0.3115 0.4553 0.9973 4.2157 2.1032 -3.7838 -2.4934 0.4158 2.7812 -0.0120
3.4372 -4.4485 -1.8936 0.7069 6.3086 -3.1857 2.5232 4.5217 0.3251 -6.2982 -4.5217 -0.0932 -0.9665 1.1388 5.0589 -0.1349 3.9041 0.9113 1.6084 1.0194 5.1575 2.0612 -4.0484 -3.9100 1.0148 4.9739 -1.9771 -0.0236 3.4880 -1.6059 -0.4909 -3.4781 -0.6130 0.7438 0.7949 2.3827 2.0584 3.0316 -0.0157 0.7408 -1.1703 -1.1773 -4.6457 -4.0736 0.2365 -3.5093 -2.7336 -0.3580 -1.6096 -2.2815 0.0709 0.7259 -2.7878 -1.5375 -0.2607 1.0143 0.8231 -0.6530 -0.6444 -0.3070 0.4560 0.9963 4.2135 2.1029 -3.7819 -2.4923 0.4129 2.7781 -0.0132
3.4394 -4.4490 -1.8942 0.7101 6.3093 -3.1854 2.5257 4.5208 0.3274 -6.2969 -4.5234 -0.0898 -0.9631 1.1365 5.0617 -0.1347 3.9044 0.9089 1.6118 1.0170 5.1586 2.0636 -4.0491 -3.9102 1.0136 4.9727 -1.9759 -0.0261 3.4861 -1.6050 -0.4860 -3.4748 -0.6109 0.7422 0.8000 2.3808 2.0584 3.0328 -0.0212 0.7382 -1.1710 -1.1763 -4.6494 -4.0715 0.2350 -3.5097 -2.7314 -0.3616 -1.6107 -2.2802 0.0701 0.7244 -2.7858 -1.5389 -0.2645 1.0121 0.8236 -0.6559 -0.6459 -0.3032 0.4564 0.9955 4.2118 2.1025 -3.7805 -2.4911 0.4109 2.7755 -0.0140
-0.7414 -3.1530 -4.9306 5.0265 4.5344 0.0186 0.5582 5.0021 -0.8615 -0.7865 -5.9660 3.9601 -3.3837 1.3975 3.3878 0.6141 3.8488 1.1675 -4.4991 2.2540 1.3021 1.3708 -3.8846 -4.1294 3.3735 3.9888 -0.3218 2.5530 2.5361 0.2236 -0.6909 -3.1040 -0.8671 -1.9512 1.4908 0.6299 0.5150 3.5869 -1.0584 0.3989 -0.9812 -1.5185 -0.0350 -4.7734 3.0692 0.1474 -3.4109 2.0677 -0.4778 -2.2546 0.7495 0.1329 -2.4854 -2.0010 -0.2543 1.0735 0.6283 0.2442 -0.7736 0.2086 -3.2328 1.7355 1.7681 0.2791 -3.1884 -3.6822 0.8392 2.5267 0.1895
-0.8724 -3.1461 -4.9308 5.0631 4.6742 -0.0362 0.6419 5.0554 -0.8625 -0.8476 -6.1119 4.0714 -3.5908 1.6511 3.2617 0.7252 3.7448 1.3737 -4.5556 2.5277 1.1175 1.3340 -3.8431 -4.3246 3.3805 4.0680 -0.3200 2.6294 2.5474 0.2684 -0.5857 -3.2499 -0.8370 -1.9602 1.5759 0.5702 0.5881 3.5389 -1.0534 0.3607 -1.0066 -1.4953 0.1742 -4.9464 3.1362 0.1557 -3.6261 2.1183 -0.4881 -2.4021 0.7546 0.1609 -2.5167 -2.0062 -0.2533 1.0205 0.7538 0.1605 -0.8275 0.2507 -3.3400 1.9172 1.6489 0.2167 -3.1814 -3.7506 0.9028 2.5367 0.2913
-1.0038 -3.0767 -4.9434 5.0978 4.9217 -0.1192 0.8532 5.0385 -0.8448 0.0213 -6.4713 4.2589 -3.6898 1.9991 3.1580 0.7431 3.6286 1.5471 -4.5288 2.9422 0.9231 1.2900 -3.8137 -4.4151 3.4341 4.2380 -0.3235 2.7940 2.6421 0.3184 -0.6642 -3.4625 -0.7356 -2.0191 1.6040 0.4766 0.5923 3.4766 -0.9563 0.3789 -1.0471 -1.4618 -0.5843 -5.3371 3.0299 0.1446 -3.8794 2.2025 -0.5345 -2.6243 0.8072 0.0343 -2.5848 -2.0158 -0.2544 1.0420 0.7894 0.2114 -0.8877 0.2447 -3.4353 2.2085 1.5336 0.1366 -3.1840 -3.8550 0.9826 2.6273 0.3810
-1.0040 -3.0759 -4.9476 5.0975 4.9255 -0.1223 0.8483 5.0405 -0.8465 0.0197 -6.4714 4.2618 -3.6968 1.9989 3.1555 0.7465 3.6280 1.5462 -4.5341 2.9409 0.9168 1.2913 -3.8134 -4.4186 3.4334 4.2366 -0.3212 2.7941 2.6391 0.3217 -0.6675 -3.4579 -0.7368 -2.0162 1.6083 0.4778 0.5996 3.4751 -0.9614 0.3786 -1.0478 -1.4579 -0.5827 -5.3375 3.0349 0.1484 -3.8798 2.2025 -0.5344 -2.6235 0.8094 0.0377 -2.5847 -2.0135 -0.2544 1.0395 0.7938 0.2098 -0.8898 0.2485 -3.4366 2.2079 1.5311 0.1374 -3.1828 -3.8554 0.9844 2.6244 0.3814
-1.0041 -3.0752 -4.9520 5.0968 4.9296 -0.1258 0.8430 5.0424 -0.8484 0.0174 -6.4714 4.2645 -3.7042 1.9988 3.1525 0.7501 3.6274 1.5451 -4.5397 2.9395 0.9099 1.2926 -3.8131 -4.4222 3.4322 4.2352 -0.3188 2.7940 2.6356 0.3255 -0.6714 -3.4525 -0.7385 -2.0123 1.6130 0.4792 0.6078 3.4736 -0.9664 0.3782 -1.0486 -1.4539 -0.5806 -5.3379 3.0403 0.1526 -3.8799 2.2024 -0.5342 -2.6227 0.8116 0.0415 -2.5845 -2.0111 -0.2545 1.0364 0.7985 0.2080 -0.8921 0.2526 -3.4380 2.2072 1.5282 0.1385 -3.1817 -3.8555 0.9861 2.6209 0.3822
-1.0040 -3.0746 -4.9557 5.0964 4.9330 -0.1286 0.8387 5.0440 -0.8500 0.0151 -6.4714 4.2664 -3.7104 1.9987 3.1499 0.7531 3.6268 1.5443 -4.5444 2.9383 0.9040 1.2936 -3.8127 -4.4251 3.4307 4.2343 -0.3170 2.7938 2.6327 0.3287 -0.6750 -3.4477 -0.7402 -2.0088 1.6170 0.4806 0.6146 3.4722 -0.9709 0.3780 -1.0496 -1.4502 -0.5788 -5.3381 3.0447 0.1565 -3.8799 2.2025 -0.5337 -2.6218 0.8134 0.0448 -2.5843 -2.0090 -0.2545 1.0336 0.8027 0.2063 -0.8942 0.2564 -3.4387 2.2068 1.5256 0.1391 -3.1809 -3.8556 0.9876 2.6178 0.3832
-0.9998 -3.0732 -4.9894 5.0867 4.9539 -0.1473 0.7905 5.0553 -0.8786 -0.0876 -6.4640 4.2666 -3.7755 1.9987 3.1093 0.7814 3.6250 1.5252 -4.5857 2.9250 0.8535 1.2906 -3.8117 -4.4555 3.4137 4.2128 -0.2983 2.7771 2.6061 0.3532 -0.6845 -3.3701 -0.7780 -1.9537 1.6602 0.5076 0.6914 3.4669 -0.9985 0.3720 -1.0668 -1.4179 -0.5281 -5.3370 3.0946 0.2247 -3.8626 2.1996 -0.5012 -2.6101 0.8311 0.0829 -2.5754 -1.9912 -0.2605 0.9920 0.8382 0.1577 -0.9147 0.3117 -3.4253 2.1891 1.5026 0.1412 -3.1639 -3.8302 0.9921 2.5644 0.3916
-1.0037 -3.0736 -4.9625 5.0952 4.9391 -0.1335 0.8302 5.0467 -0.8532 0.0090 -6.4715 4.2692 -3.7220 1.9988 3.1445 0.7588 3.6257 1.5426 -4.5528 2.9364 0.8930 1.2955 -3.8122 -4.4304 3.4278 4.2325 -0.3136 2.7926 2.6275 0.3342 -0.6822 -3.4374 -0.7444 -2.0010 1.6247 0.4836 0.6279 3.4699 -0.9787 0.3783 -1.0521 -1.4428 -0.5748 -5.3385 3.0530 0.1644 -3.8793 2.2026 -0.5324 -2.6201 0.8166 0.0503 -2.5840 -2.0053 -0.2547 1.0272 0.8111 0.2022 -0.8984 0.2638 -3.4393 2.2060 1.5205 0.1409 -3.1790 -3.8551 0.9899 2.6116 0.3848
-1.0035 -3.0734 -4.9645 5.0947 4.9410 -0.1352 0.8276 5.0476 -0.8542 0.0067 -6.4714 4.2699 -3.7257 1.9988 3.1425 0.7603 3.6254 1.5420 -4.5553 2.9358 0.8895 1.2961 -3.8121 -4.4320 3.4267 4.2319 -0.3126 2.7923 2.6257 0.3362 -0.6849 -3.4339 -0.7459 -1.9983 1.6272 0.4846 0.6321 3.4694 -0.9809 0.3780 -1.0527 -1.4408 -0.5734 -5.3386 3.0556 0.1672 -3.8790 2.2026 -0.5318 -2.6196 0.8176 0.0523 -2.5839 -2.0040 -0.2547 1.0249 0.8138 0.2008 -0.8998 0.2662 -3.4393 2.2055 1.5191 0.1416 -3.1786 -3.8548 0.9904 2.6097 0.3855
-1.0034 -3.0733 -4.9655 5.0945 4.9420 -0.1360 0.8262 5.0481 -0.8549 0.0055 -6.4714 4.2702 -3.7277 1.9989 3.1415 0.7612 3.6253 1.5416 -4.5566 2.9355 0.8876 1.2963 -3.8121 -4.4329 3.4262 4.2315 -0.3120 2.7920 2.6248 0.3372 -0.6857 -3.4321 -0.7467 -1.9968 1.6285 0.4851 0.6343 3.4690 -0.9820 0.3781 -1.0532 -1.4395 -0.5726 -5.3385 3.0569 0.1686 -3.8789 2.2026 -0.5314 -2.6193 0.8180 0.0531 -2.5838 -2.0035 -0.2548 1.0237 0.8152 0.2000 -0.9004 0.2674 -3.4393 2.2053 1.5184 0.1417 -3.1784 -3.8547 0.9907 2.6086 0.3857
-1.0002 -3.0727 -4.9884 5.0865 4.9555 -0.1492 0.7934 5.0545 -0.8753 -0.0675 -6.4672 4.2681 -3.7732 2.0000 3.1108 0.7804 3.6237 1.5280 -4.5843 2.9272 0.8532 1.2919 -3.8118 -4.4537 3.4137 4.2158 -0.3010 2.7798 2.6066 0.3533 -0.6891 -3.3759 -0.7746 -1.9563 1.6592 0.5052 0.6884 3.4662 -0.9976 0.3730 -1.0664 -1.4176 -0.5383 -5.3379 3.0910 0.2160 -3.8655 2.2005 -0.5072 -2.6112 0.8299 0.0816 -2.5757 -1.9910 -0.2596 0.9933 0.8387 0.1631 -0.9142 0.3078 -3.4271 2.1920 1.5025 0.1425 -3.1652 -3.8341 0.9925 2.5699 0.3934
-1.0034 -3.0732 -4.9665 5.0942 4.9429 -0.1368 0.8249 5.0485 -0.8554 0.0041 -6.4713 4.2705 -3.7296 1.9990 3.1404 0.7621 3.6251 1.5412 -4.5579 2.9352 0.8859 1.2963 -3.8120 -4.4337 3.4255 4.2313 -0.3118 2.7917 2.6239 0.3381 -0.6867 -3.4302 -0.7476 -1.9954 1.6297 0.4858 0.6365 3.4688 -0.9830 0.3779 -1.0537 -1.4383 -0.5719 -5.3386 3.0583 0.1697 -3.8788 2.2026 -0.5312 -2.6190 0.8184 0.0543 -2.5836 -2.0028 -0.2549 1.0225 0.8166 0.1992 -0.9011 0.2686 -3.4392 2.2051 1.5177 0.1424 -3.1780 -3.8545 0.9910 2.6075 0.3862
-1.0029 -3.0730 -4.9697 5.0932 4.9459 -0.1394 0.8207 5.0496 -0.8573 -0.0001 -6.4712 4.2713 -3.7356 1.9991 3.1369 0.7646 3.6247 1.5399 -4.5619 2.9342 0.8801 1.2970 -3.8119 -4.4363 3.4239 4.2301 -0.3098 2.7908 2.6208 0.3414 -0.6907 -3.4241 -0.7504 -1.9904 1.6339 0.4876 0.6434 3.4680 -0.9863 0.3778 -1.0553 -1.4346 -0.5689 -5.3385 3.0626 0.1744 -3.8781 2.2026 -0.5297 -2.6180 0.8199 0.0574 -2.5834 -2.0007 -0.2553 1.0187 0.8207 0.1965 -0.9032 0.2728 -3.4388 2.2042 1.5153 0.1431 -3.1768 -3.8536 0.9917 2.6040 0.3871
-1.0004 -3.0726 -4.9870 5.0867 4.9562 -0.1501 0.7960 5.0540 -0.8728 -0.0535 -6.4688 4.2692 -3.7704 2.0005 3.1127 0.7791 3.6231 1.5299 -4.5829 2.9287 0.8538 1.2932 -3.8118 -4.4519 3.4142 4.2184 -0.3019 2.7816 2.6073 0.3532 -0.6929 -3.3810 -0.7716 -1.9591 1.6575 0.5030 0.6850 3.4657 -0.9972 0.3741 -1.0658 -1.4179 -0.5446 -5.3383 3.0881 0.2094 -3.8681 2.2010 -0.5113 -2.6121 0.8288 0.0799 -2.5763 -1.9911 -0.2586 0.9950 0.8384 0.1679 -0.9137 0.3041 -3.4287 2.1941 1.5031 0.1429 -3.1664 -3.8373 0.9926 2.5745 0.3935
-1.0008 -3.0726 -4.9855 5.0872 4.9562 -0.1503 0.7984 5.0537 -0.8707 -0.0436 -6.4699 4.2697 -3.7675 2.0007 3.1149 0.7780 3.6229 1.5313 -4.5812 2.9296 0.8551 1.2940 -3.8118 -4.4505 3.4147 4.2203 -0.3031 2.7829 2.6079 0.3530 -0.6954 -3.3853 -0.7694 -1.9618 1.6558 0.5012 0.6813 3.4655 -0.9967 0.3749 -1.0650 -1.4185 -0.5486 -5.3385 3.0856 0.2042 -3.8700 2.2012 -0.5147 -2.6128 0.8278 0.0783 -2.5770 -1.9914 -0.2582 0.9967 0.8380 0.1716 -0.9129 0.3008 -3.4301 2.1959 1.5039 0.1439 -3.1678 -3.8399 0.9926 2.5785 0.3936
-1.0021 -3.0728 -4.9752 5.0911 4.9510 -0.1443 0.8131 5.0515 -0.8613 -0.0096 -6.4708 4.2719 -3.7466 1.9996 3.1300 0.7691 3.6242 1.5373 -4.5690 2.9328 0.8701 1.2973 -3.8116 -4.4411 3.4210 4.2274 -0.3062 2.7889 2.6152 0.3471 -0.6964 -3.4120 -0.7562 -1.9811 1.6415 0.4913 0.6561 3.4667 -0.9916 0.3774 -1.0585 -1.4281 -0.5626 -5.3383 3.0704 0.1830 -3.8766 2.2025 -0.5269 -2.6165 0.8223 0.0643 -2.5820 -1.9967 -0.2560 1.0112 0.8279 0.1902 -0.9069 0.2810 -3.4372 2.2023 1.5110 0.1439 -3.1743 -3.8512 0.9924 2.5970 0.3891
-1.0008 -3.0728 -4.9828 5.0881 4.9557 -0.1492 0.8026 5.0533 -0.8674 -0.0298 -6.4710 4.2706 -3.7619 2.0007 3.1189 0.7754 3.6231 1.5334 -4.5781 2.9310 0.8580 1.2957 -3.8115 -4.4479 3.4162 4.2230 -0.3042 2.7851 2.6093 0.3521 -0.6981 -3.3931 -0.7652 -1.9671 1.6521 0.4982 0.6745 3.4655 -0.9959 0.3759 -1.0633 -1.4203 -0.5535 -5.3383 3.0814 0.1966 -3.8728 2.2018 -0.5198 -2.6140 0.8261 0.0745 -2.5787 -1.9923 -0.2573 1.0004 0.8362 0.1781 -0.9115 0.2947 -3.4326 2.1981 1.5052 0.1435 -3.1698 -3.8441 0.9927 2.5847 0.3926
-0.9704 -2.9688 -5.0612 5.1304 5.0705 -0.2187 0.9219 5.0835 -0.8709 -0.3761 -6.8524 4.0994 -3.7127 2.1124 3.0953 0.8086 3.5941 1.6046 -4.5059 3.1454 0.8422 1.2572 -3.8303 -4.4035 3.4748 4.2948 -0.3693 2.8511 2.7062 0.3212 -0.7640 -3.4513 -0.7527 -1.9688 1.6325 0.4938 0.6623 3.4809 -0.9349 0.4076 -1.0958 -1.3900 -0.5423 -5.4969 3.1638 0.1592 -3.9638 2.2437 -0.5526 -2.6726 0.8771 -0.0160 -2.6012 -1.9860 -0.2123 1.0238 0.8358 0.1782 -0.9514 0.3483 -3.4074 2.3158 1.4876 0.1226 -3.1730 -3.8409 1.0546 2.5976 0.4155
-0.9711 -2.9622 -5.0641 5.1305 5.0791 -0.2274 0.9304 5.0823 -0.8656 -0.2784 -6.8755 4.1120 -3.7161 2.1228 3.0891 0.8088 3.5940 1.6075 -4.5047 3.1596 0.8326 1.2561 -3.8322 -4.3980 3.4762 4.2986 -0.3709 2.8576 2.7054 0.3217 -0.7646 -3.4538 -0.7479 -1.9682 1.6347 0.4930 0.6653 3.4807 -0.9309 0.4071 -1.1015 -1.3823 -0.6185 -5.5126 3.1476 0.1396 -3.9744 2.2495 -0.5585 -2.6779 0.8809 -0.0231 -2.5994 -1.9867 -0.2132 1.0227 0.8395 0.1832 -0.9509 0.3488 -3.4083 2.3260 1.4827 0.1163 -3.1674 -3.8459 1.0534 2.6019 0.4149
-0.9532 -2.8834 -5.1147 5.1566 5.2100 -0.3351 1.0150 5.0946 -0.8442 -0.4260 -7.1858 4.0536 -3.7498 2.2449 3.0247 0.8518 3.5728 1.6505 -4.4749 3.3382 0.7426 1.2288 -3.8381 -4.3803 3.5116 4.3590 -0.4075 2.9237 2.7498 0.3159 -0.8155 -3.4646 -0.7266 -1.9373 1.6589 0.5039 0.7289 3.4747 -0.8927 0.4090 -1.1475 -1.3250 -0.6702 -5.7124 3.1587 0.0915 -4.0695 2.2813 -0.6007 -2.7234 0.9429 -0.0857 -2.6033 -1.9663 -0.1917 1.0204 0.8671 0.1822 -0.9814 0.4161 -3.3907 2.4322 1.4357 0.0922 -3.1482 -3.8393 1.1045 2.6022 0.4386

$$$$
CHEMBL1161504
 OpenBabel02201516203D

 23 24  0  0  1  0  0  0  0  0999 V2000
   -1.7472    0.9744    6.3294 O   0  0  0  0  0
   -0.2783   -0.1780    0.2867 C   0  0  0  0  0
    1.1230    3.9099    0.6948 C   0  0  0  0  0
    4.6975   -0.1711    0.6880 C   0  0  0  0  0
    2.9302   -2.1401    4.8363 N   0  0  0  0  0
    4.2545    1.0565    2.6542 O   0  0  0  0  0
   -1.1880   -0.8865    7.1753 O   0  0  0  0  0
    1.1097    2.7340    2.8810 O   0  0  0  0  0
    1.4235    0.8252   -1.2859 C   0  0  0  0  0
    1.1894    2.3567   -1.1792 C   0  0  0  0  0
    2.8327   -0.5992    2.2557 N   0  0  0  0  0
    0.0704    0.7488    4.3013 O   0  0  0  0  0
    0.6833   -1.3189    5.2522 C   0  0  0  0  0
    1.1425    0.3773    0.1686 C   0  0  0  0  0
    1.7223   -1.5975    4.2002 C   0  0  0  0  0
    2.0703   -0.2964    3.4695 C   0  0  0  0  0
    0.7602    0.4098    3.0950 C   0  0  0  0  0
    1.6736    2.6427    0.1958 N   0  0  0  0  0
    1.2842    1.5925    0.9866 N   0  0  0  0  0
    3.9133    0.1403    1.9366 C   0  0  0  0  0
   -1.0523   -0.0325    6.3096 C   0  0  0  0  0
    1.0637    1.6626    2.3144 C   0  0  0  0  0
   -0.0537   -0.2164    5.2449 C   0  0  0  0  0
  1 21  1  0  0  0
  2 14  1  0  0  0
  3 18  1  0  0  0
  4 20  1  0  0  0
  5 15  1  0  0  0
  6 20  2  0  0  0
  7 21  2  0  0  0
  8 22  2  0  0  0
  9 10  1  0  0  0
  9 14  1  0  0  0
 10 18  1  0  0  0
 11 16  1  0  0  0
 11 20  1  0  0  0
 12 17  1  0  0  0
 12 23  1  0  0  0
 13 15  1  0  0  0
 13 23  2  0  0  0
 14 19  1  0  0  0
 15 16  1  0  0  0
 16 17  1  0  0  0
 17 22  1  0  0  0
 18 19  1  0  0  0
 19 22  1  0  0  0
 21 23  1  0  0  0
M  CHG  1  17  -1
M  END

>  <MOLID> (CHEMBL1161504)
CHEMBL1161504

>  <SMILES_CANONICAL> (CHEMBL1161504)
CC(=O)N[C@@H]1[C@@H](N)C=C(O[C-]1C(=O)N1[C@@H](C)CCN1C)C(=O)O	CHEMBL1161504

>  <FINGERPRINT> (CHEMBL1161504)
0000000010000011000000000000010010001001000000000111011000000000000000000001000000100000000001011000000000000001000001010000000110000000000010000000000110000001000000000000000000000010000000000000000001001000000000011000000100111000101000000000110000000000000000110010000000000000000000000000000000010000100000011110100010000000001100000000000001001000010000000000001111010010000000001000110000000010100000000000001000000000001010000000000000000000001000100000101000010101100010000011100000001001100100000000100000110100001000000000000000000100100000000000000000000001010000010100010011000001010000000001100000000000000000001110001000000001110000000000000001000000001000000011000000001010000011111000000001010111000000001100000000000000000010100001000000000000000111000000000000000000000101000001000010000000100000000000110000000000000100001100000001000000000000001001000000000000000000010010000100001001000000000100001000000000000000000000110000000100000100110000110000000100000000000000000000000000001001000110001100001001

>  <MACCS166> (CHEMBL1161504)
000000000000000000000000000000000000000000000000100101001000000000000001001100110011010000011111111100000001011000101001111100000110100111111100010111111101111110111000

>  <OB_MW> (CHEMBL1161504)
325.151

>  <OB_logP> (CHEMBL1161504)
-0.2163

>  <OB_PSA> (CHEMBL1161504)
125.2

>  <OB_MR> (CHEMBL1161504)
86.5909

>  <OB_ATOMIC_CHARGES> (CHEMBL1161504)
-0.2372360088 0.0230809622 0.1110952449 0.0963341647 -0.1291079934 -0.2734160506 -0.2372360088 -0.3093254977 0.0403571741 0.0938647877 -0.2377509173 -0.6431262398 0.0324817991 0.0909239591 0.1070562091 0.0049121853 -0.0391354964 -0.2032080171 -0.2484019242 0.2394705505 0.4181621123 0.1167428785 0.1834621265

>  <MCT_HBD> (CHEMBL1161504)
3

>  <MCT_HBA> (CHEMBL1161504)
9

>  <ENSEMBLE_TOTAL> (CHEMBL1161504)
50

>  <ENSEMBLE_RMSD> (CHEMBL1161504)
0.000 0.928 0.949 0.957 1.265 1.270 1.281 1.282 1.283 1.541 1.589 1.595 1.856 1.995 2.006 2.027 2.030 2.034 2.037 2.038 2.044 2.047 2.053 2.056 2.188 2.190 2.192 2.193 2.194 2.195 2.196 2.197 2.197 2.297 2.302 2.406 2.416 2.423 2.439 2.439 2.452 2.471 2.471 2.472 2.472 2.472 2.472 2.473 2.473 2.473

>  <ENSEMBLE_COORDS> (CHEMBL1161504)
-3.0352 0.4529 3.5985 -1.5663 -0.6995 -2.4442 -0.1650 3.3884 -2.0361 3.4095 -0.6926 -2.0429 1.6422 -2.6616 2.1054 2.9665 0.5350 -0.0767 -2.4760 -1.4080 4.4444 -0.1783 2.2125 0.1501 0.1355 0.3037 -4.0168 -0.0986 1.8352 -3.9101 1.5447 -1.1207 -0.4752 -1.2176 0.2273 1.5704 -0.6047 -1.8404 2.5213 -0.1455 -0.1442 -2.5623 0.4343 -2.1190 1.4693 0.7823 -0.8179 0.7386 -0.5278 -0.1117 0.3641 0.3856 2.1212 -2.5351 -0.0038 1.0710 -1.7443 2.6253 -0.3812 -0.7943 -2.3403 -0.5540 3.5787 -0.2243 1.1411 -0.4165 -1.3417 -0.7379 2.5140
-3.7960 -0.7684 3.1452 -1.8848 -0.2338 -2.9711 0.0326 3.4851 -2.1495 3.7532 -0.4334 -1.8015 1.9780 -2.1753 2.7035 2.5743 -2.4173 -1.2995 -2.3654 -1.1176 4.7057 -0.5980 2.4299 0.1199 -0.1747 0.7317 -4.1075 0.1296 2.0848 -3.8393 2.2529 -0.5290 0.2054 -1.2850 0.0184 1.4764 -0.2952 -1.3909 2.9141 -0.4631 0.2767 -2.7154 0.9471 -1.3681 2.1568 1.0474 -0.5637 0.8656 -0.2032 0.1735 0.5543 0.2800 2.1530 -2.5006 -0.3623 1.2113 -1.9586 2.6361 -1.1309 -0.9021 -2.5148 -0.8580 3.4497 -0.3530 1.1470 -0.6083 -1.3360 -0.7250 2.5569
-3.8777 -0.2992 3.3134 -2.6737 0.1376 -2.9708 -0.1678 3.5099 -2.3905 4.2385 -1.6669 -1.8337 1.8797 -2.5168 2.6651 4.7908 -0.9594 0.4423 -2.6029 -1.6252 4.6315 -0.6140 2.4829 -0.0900 -0.9357 0.7985 -4.3364 -0.2156 2.0008 -4.1263 2.3402 -0.4811 -0.1752 -1.3171 0.0457 1.4664 -0.3124 -1.5207 2.7957 -1.1320 0.2505 -2.9078 0.9566 -1.5327 2.0133 1.1399 -0.6557 0.7976 -0.1893 0.1966 0.5429 0.0567 2.0832 -2.7740 -0.6554 1.2350 -2.1292 3.7741 -1.0767 -0.3659 -2.6262 -0.9060 3.4880 -0.4690 1.2799 -0.6035 -1.3875 -0.7805 2.5469
-3.7965 -0.5166 3.2922 -2.3569 -0.1032 -2.9518 -0.1081 3.4539 -2.3076 4.5210 0.1842 -0.8080 1.6974 -2.6766 2.4876 3.9950 -2.1709 -0.7653 -2.3515 -0.9421 4.8108 -0.5111 2.3794 -0.0055 -0.6809 0.7280 -4.2623 -0.2497 2.0354 -4.0252 2.0696 -0.8208 -0.2660 -1.2600 0.0714 1.4885 -0.3618 -1.5199 2.7815 -0.8982 0.2222 -2.8369 0.8325 -1.6601 1.9171 1.0138 -0.8133 0.6911 -0.2246 0.1105 0.4823 0.0824 2.0903 -2.6998 -0.5803 1.1793 -2.0794 3.4246 -0.9994 -0.4337 -2.4955 -0.6836 3.5600 -0.4180 1.1505 -0.6379 -1.3435 -0.6987 2.5683
-3.7996 -0.1761 3.4252 -3.3005 0.6677 -2.9416 0.0320 3.4317 -2.6097 5.0707 -1.7947 -1.1979 1.9829 -2.5689 2.7552 5.0877 -1.0171 1.0558 -2.6802 -1.8299 4.4794 -0.7128 2.5278 -0.2085 -1.5602 0.9659 -4.5311 -0.4105 1.9151 -4.4019 2.6080 -0.5887 -0.1709 -1.2329 -0.0100 1.3998 -0.2536 -1.5533 2.7959 -1.7759 0.4522 -3.1169 1.0107 -1.5685 2.0535 1.2380 -0.6812 0.7780 -0.0756 0.1636 0.4639 -0.0267 1.9620 -3.0124 -0.9045 1.3084 -2.2971 4.1686 -1.0944 -0.0091 -2.6227 -0.9598 3.4681 -0.5129 1.2690 -0.6795 -1.3302 -0.8207 2.5017
-3.8025 -0.1591 3.4336 -3.3057 0.6869 -2.9304 0.0450 3.4291 -2.6418 5.0612 -1.8144 -1.2149 1.9905 -2.5829 2.7400 5.0923 -0.9820 1.0904 -2.6841 -1.8730 4.4673 -0.7101 2.5292 -0.2012 -1.5691 0.9491 -4.5381 -0.4159 1.8922 -4.4292 2.6088 -0.5808 -0.1762 -1.2363 -0.0025 1.4113 -0.2535 -1.5584 2.7941 -1.7825 0.4420 -3.1177 1.0072 -1.5736 2.0522 1.2404 -0.6767 0.7754 -0.0788 0.1704 0.4734 -0.0285 1.9628 -3.0151 -0.8926 1.3317 -2.3065 4.1991 -1.1070 0.0138 -2.6278 -0.9684 3.4812 -0.5268 1.3059 -0.6671 -1.3304 -0.8205 2.5054
-3.8141 -0.1415 3.4512 -3.3178 0.7707 -2.8855 0.0700 3.4280 -2.7290 5.0436 -1.8368 -1.2193 2.0526 -2.6280 2.6681 5.0729 -0.9556 1.1203 -2.6993 -1.9475 4.4463 -0.6888 2.5255 -0.1556 -1.5739 0.8471 -4.5773 -0.4084 1.8264 -4.5144 2.6192 -0.5294 -0.1849 -1.2676 0.0337 1.4402 -0.2454 -1.6127 2.8101 -1.7951 0.4420 -3.1003 1.0163 -1.6170 2.0683 1.2255 -0.6621 0.8031 -0.1434 0.2341 0.5198 0.0031 1.9744 -3.0601 -0.8662 1.3859 -2.3255 4.2625 -1.1094 0.0205 -2.6532 -1.0045 3.5082 -0.5551 1.4164 -0.6331 -1.3374 -0.8397 2.5287
-3.8148 -0.1439 3.4521 -3.3187 0.7783 -2.8819 0.0737 3.4281 -2.7369 5.0420 -1.8393 -1.2194 2.0567 -2.6275 2.6648 5.0714 -0.9556 1.1212 -2.7002 -1.9511 4.4452 -0.6863 2.5264 -0.1534 -1.5738 0.8432 -4.5784 -0.4078 1.8215 -4.5195 2.6203 -0.5254 -0.1849 -1.2704 0.0349 1.4415 -0.2441 -1.6162 2.8119 -1.7965 0.4442 -3.0983 1.0174 -1.6185 2.0699 1.2242 -0.6607 0.8048 -0.1481 0.2370 0.5223 0.0053 1.9744 -3.0634 -0.8652 1.3880 -2.3253 4.2637 -1.1091 0.0201 -2.6543 -1.0075 3.5088 -0.5560 1.4205 -0.6315 -1.3384 -0.8416 2.5302
-3.8154 -0.1437 3.4527 -3.3195 0.7862 -2.8778 0.0756 3.4274 -2.7416 5.0399 -1.8426 -1.2192 2.0650 -2.6272 2.6584 5.0691 -0.9553 1.1229 -2.7017 -1.9541 4.4439 -0.6830 2.5252 -0.1520 -1.5728 0.8371 -4.5801 -0.4054 1.8184 -4.5252 2.6223 -0.5210 -0.1864 -1.2746 0.0363 1.4434 -0.2424 -1.6201 2.8141 -1.7982 0.4460 -3.0962 1.0198 -1.6209 2.0716 1.2218 -0.6590 0.8073 -0.1561 0.2411 0.5251 0.0088 1.9754 -3.0676 -0.8645 1.3895 -2.3257 4.2656 -1.1097 0.0202 -2.6558 -1.0104 3.5100 -0.5585 1.4254 -0.6305 -1.3400 -0.8439 2.5327
-3.7954 -0.1105 3.4868 -3.4592 0.6293 -2.9291 0.2460 3.4564 -2.7755 5.7731 -0.5568 0.1326 2.0947 -2.5704 2.7931 4.7706 -2.8197 0.1788 -2.7021 -1.8759 4.4462 -0.7579 2.5760 -0.1942 -1.7735 0.8877 -4.6654 -0.7581 2.0784 -4.5888 2.7908 -0.6338 -0.1140 -1.2011 0.0330 1.3860 -0.2107 -1.5350 2.8175 -1.9208 0.4976 -3.1455 1.0633 -1.5670 2.1047 1.3022 -0.6364 0.7696 -0.0520 0.2188 0.4602 -0.2966 2.1812 -3.1957 -0.9768 1.4581 -2.3536 4.3593 -1.3650 0.0835 -2.6428 -0.9480 3.4990 -0.5328 1.3908 -0.7122 -1.3202 -0.7890 2.5161
-3.8373 -0.1961 3.4409 -3.6553 0.8432 -2.9361 0.2442 3.4242 -2.8406 5.4322 -2.1099 -0.7713 2.1444 -2.4797 2.9117 5.4519 -1.4847 1.5426 -2.7505 -2.0383 4.2987 -0.8480 2.5676 -0.2186 -2.0479 1.1158 -4.7203 -0.8938 2.1353 -4.6551 2.9540 -0.5622 0.0245 -1.1663 -0.0258 1.3206 -0.1853 -1.5286 2.8011 -2.1429 0.6150 -3.2140 1.1182 -1.5052 2.1416 1.4195 -0.5710 0.7743 0.0234 0.2082 0.4194 -0.2148 2.0216 -3.3078 -1.0282 1.4498 -2.4155 4.5239 -1.3434 0.3252 -2.6691 -1.0558 3.3952 -0.5590 1.3608 -0.7677 -1.3132 -0.8408 2.4513
-3.8364 -0.1832 3.4485 -3.6743 0.8730 -2.9228 0.2490 3.4143 -2.8633 5.4282 -2.1271 -0.7841 2.1467 -2.4946 2.8990 5.4586 -1.4461 1.5732 -2.7535 -2.0699 4.2835 -0.8445 2.5621 -0.2225 -2.0479 1.1076 -4.7266 -0.8933 2.1173 -4.6756 2.9590 -0.5588 0.0168 -1.1677 -0.0170 1.3300 -0.1830 -1.5363 2.8019 -2.1420 0.5978 -3.2225 1.1213 -1.5105 2.1351 1.4195 -0.5748 0.7820 0.0227 0.2209 0.4227 -0.2123 2.0203 -3.3075 -1.0466 1.4668 -2.4283 4.5469 -1.3554 0.3583 -2.6688 -1.0583 3.4028 -0.5725 1.3927 -0.7556 -1.3087 -0.8409 2.4550
-3.8618 -0.1992 3.5068 -3.9870 1.3248 -2.7524 0.4756 3.0969 -3.2784 5.8701 -2.1804 -0.3638 2.1932 -2.4875 2.8965 5.5986 -1.6072 1.9976 -2.7916 -2.2113 4.1561 -0.9518 2.5850 -0.2302 -2.5371 1.4331 -4.7069 -1.1167 1.9847 -4.8669 3.1457 -0.5850 0.0658 -1.1096 -0.0246 1.2717 -0.1352 -1.5399 2.7471 -2.5186 0.8712 -3.1997 1.2023 -1.4959 2.0901 1.5681 -0.5601 0.7419 0.1068 0.2596 0.3451 -0.2826 1.7675 -3.4925 -1.1428 1.5333 -2.5267 4.7760 -1.4240 0.6495 -2.6612 -1.1180 3.3542 -0.5795 1.4408 -0.8038 -1.2610 -0.8639 2.3989
-3.6054 0.1603 3.5913 -1.1417 3.6423 -1.2023 -1.5032 0.3963 -3.9155 4.6991 -0.5772 -1.2788 2.0383 -2.0492 2.8966 4.0357 -2.7303 -0.5000 -2.4836 -1.1943 4.7771 -1.9130 -0.5257 -1.5691 0.1125 3.2703 -3.0999 -0.1349 2.2049 -3.9873 2.0944 -1.0620 -0.4402 -1.4190 -0.2563 1.3054 -0.1922 -1.2129 2.9302 -0.1101 2.6041 -1.7291 1.0039 -1.4030 2.0559 1.0141 -0.9718 0.6212 -0.3908 -0.3133 0.2664 -0.3652 1.0931 -3.2415 -0.5783 1.4232 -2.0094 3.5215 -1.5188 -0.5676 -2.4654 -0.5642 3.6259 -0.8792 0.2567 -1.1106 -1.3377 -0.6723 2.5814
-3.8353 -0.1280 3.5681 -4.0692 1.5215 -2.6596 0.5161 2.9381 -3.4378 6.4260 -0.9811 0.4429 2.2062 -2.4728 2.9169 5.3054 -2.9327 1.3237 -2.8584 -2.1963 4.1448 -0.9868 2.6090 -0.2221 -2.6928 1.5482 -4.6850 -1.2154 1.8963 -4.9371 3.2046 -0.6303 0.0746 -1.0872 -0.0121 1.2611 -0.1178 -1.5143 2.7537 -2.6411 0.9891 -3.1680 1.2330 -1.4860 2.0930 1.6270 -0.5708 0.7285 0.1351 0.2619 0.3189 -0.3335 1.6516 -3.5613 -1.1722 1.5409 -2.5541 4.8322 -1.5457 0.6530 -2.6628 -1.0799 3.3725 -0.5712 1.4363 -0.8327 -1.2420 -0.8429 2.4059
-3.7504 0.0549 3.4892 -1.1791 3.6313 -1.1659 -1.5084 0.4761 -3.9673 4.7165 -0.5905 -1.2606 2.1194 -2.0443 2.9064 3.9959 -2.8000 -0.4834 -2.3489 -1.0809 4.9388 -1.8987 -0.5202 -1.6510 0.1989 3.3546 -3.0164 -0.0647 2.3216 -4.0079 2.0737 -1.0981 -0.5328 -1.4843 -0.2804 1.3076 -0.1717 -1.2168 2.9787 -0.0938 2.6757 -1.6815 1.0109 -1.4183 2.1060 0.9729 -1.0052 0.6315 -0.4525 -0.3672 0.2666 -0.3524 1.1375 -3.2973 -0.5729 1.4174 -2.0658 3.5944 -1.5929 -0.6502 -2.4859 -0.5613 3.7061 -0.9711 0.1894 -1.1602 -1.3479 -0.6824 2.6094
-3.7517 0.0573 3.4915 -1.1800 3.6295 -1.1627 -1.5216 0.4856 -3.9679 4.7207 -0.5927 -1.2525 2.1305 -2.0463 2.9026 3.9937 -2.8026 -0.4783 -2.3454 -1.0750 4.9460 -1.8970 -0.5207 -1.6550 0.2178 3.3649 -3.0105 -0.0574 2.3336 -4.0177 2.0708 -1.1047 -0.5528 -1.4899 -0.2834 1.3096 -0.1688 -1.2181 2.9863 -0.0875 2.6874 -1.6791 1.0091 -1.4216 2.1132 0.9650 -1.0105 0.6324 -0.4599 -0.3745 0.2674 -0.3557 1.1364 -3.3109 -0.5720 1.4149 -2.0743 3.5967 -1.5982 -0.6568 -2.4888 -0.5579 3.7171 -0.9802 0.1788 -1.1612 -1.3482 -0.6822 2.6137
-3.8642 -0.1599 3.5679 -4.0986 1.6907 -2.6013 0.5001 2.9345 -3.5162 6.4704 -1.0593 0.2069 2.1802 -2.5044 2.9290 5.4322 -2.7165 1.7110 -2.8782 -2.2038 4.1332 -0.9042 2.6115 -0.2711 -2.7639 1.6015 -4.6683 -1.2949 1.8725 -4.9691 3.2237 -0.7155 0.0794 -1.0773 -0.0122 1.2490 -0.1255 -1.5151 2.7510 -2.6804 1.0212 -3.1558 1.2322 -1.5175 2.0956 1.6482 -0.6210 0.7197 0.1503 0.2369 0.2955 -0.3911 1.5683 -3.6262 -1.1962 1.5016 -2.5854 4.8954 -1.5343 0.7417 -2.6703 -1.0584 3.3731 -0.5466 1.4110 -0.8615 -1.2412 -0.8318 2.4017
-3.8537 -0.1273 3.5935 -4.0926 1.7148 -2.5930 0.5062 2.9008 -3.5590 6.4754 -1.0350 0.2187 2.1867 -2.5271 2.9095 5.4262 -2.7233 1.7111 -2.8841 -2.2210 4.1262 -0.9013 2.6116 -0.2633 -2.7707 1.5608 -4.6847 -1.2992 1.8329 -4.9906 3.2298 -0.7053 0.0836 -1.0832 -0.0097 1.2512 -0.1321 -1.5340 2.7458 -2.6885 1.0372 -3.1456 1.2288 -1.5280 2.0901 1.6429 -0.6219 0.7352 0.1477 0.2508 0.3104 -0.3815 1.5952 -3.6157 -1.1924 1.5302 -2.5857 4.9149 -1.5225 0.7323 -2.6801 -1.0771 3.3761 -0.5521 1.4424 -0.8451 -1.2471 -0.8445 2.3989
-3.7869 -0.0247 3.4671 -1.2854 3.6217 -1.2024 -1.4870 0.4759 -4.0098 4.7328 -0.5851 -1.2342 2.1445 -2.0522 2.8999 4.0053 -2.8002 -0.4681 -2.3162 -1.0095 4.9844 -1.8889 -0.5466 -1.6670 0.2409 3.3802 -2.9985 -0.0309 2.3475 -4.0241 2.0736 -1.1004 -0.5579 -1.4869 -0.2866 1.3196 -0.1628 -1.2266 2.9973 -0.1273 2.7241 -1.6824 1.0092 -1.4267 2.1273 0.9630 -1.0105 0.6402 -0.4616 -0.3730 0.2746 -0.3446 1.1391 -3.3209 -0.5800 1.4189 -2.0813 3.6062 -1.5926 -0.6551 -2.4923 -0.5645 3.7270 -0.9785 0.1790 -1.1570 -1.3460 -0.6874 2.6214
-3.8475 -0.0975 3.6043 -4.0850 1.7658 -2.5708 0.4998 2.8763 -3.5804 6.4835 -0.9850 0.2306 2.2129 -2.5531 2.8742 5.4130 -2.7366 1.7094 -2.8936 -2.2337 4.1159 -0.8924 2.5928 -0.2695 -2.7715 1.5121 -4.7049 -1.2971 1.7975 -5.0126 3.2489 -0.7141 0.0813 -1.0909 0.0069 1.2543 -0.1350 -1.5570 2.7515 -2.7033 1.0633 -3.1364 1.2254 -1.5499 2.0925 1.6276 -0.6393 0.7651 0.1355 0.2672 0.3277 -0.3773 1.6026 -3.6209 -1.1968 1.5548 -2.5992 4.9548 -1.5239 0.7351 -2.6939 -1.0868 3.3884 -0.5664 1.4880 -0.8384 -1.2506 -0.8507 2.4029
-3.8462 -0.0898 3.6048 -4.0802 1.7932 -2.5618 0.4981 2.8701 -3.5870 6.4856 -0.9681 0.2342 2.2231 -2.5569 2.8641 5.4084 -2.7391 1.7077 -2.8963 -2.2372 4.1124 -0.8878 2.5847 -0.2740 -2.7722 1.4992 -4.7094 -1.2964 1.7902 -5.0176 3.2576 -0.7233 0.0830 -1.0945 0.0105 1.2543 -0.1339 -1.5650 2.7574 -2.7085 1.0756 -3.1350 1.2267 -1.5581 2.0967 1.6213 -0.6473 0.7754 0.1273 0.2696 0.3312 -0.3771 1.6013 -3.6262 -1.1996 1.5589 -2.6041 4.9661 -1.5254 0.7369 -2.6979 -1.0869 3.3917 -0.5716 1.4967 -0.8409 -1.2519 -0.8527 2.4062
-3.8405 -0.0689 3.6083 -4.0670 1.8565 -2.5428 0.4967 2.8606 -3.5989 6.4919 -0.9207 0.2508 2.2453 -2.5698 2.8391 5.4017 -2.7350 1.7072 -2.9019 -2.2369 4.1090 -0.8770 2.5686 -0.2854 -2.7749 1.4753 -4.7162 -1.2929 1.7645 -5.0334 3.2717 -0.7559 0.0834 -1.1048 0.0147 1.2551 -0.1319 -1.5827 2.7682 -2.7204 1.1050 -3.1302 1.2300 -1.5792 2.1007 1.6072 -0.6704 0.7903 0.1070 0.2683 0.3353 -0.3797 1.5970 -3.6375 -1.2060 1.5669 -2.6123 4.9860 -1.5235 0.7449 -2.7026 -1.0833 3.3985 -0.5827 1.5074 -0.8488 -1.2551 -0.8585 2.4147
-3.8409 -0.0715 3.6059 -4.0608 1.8892 -2.5329 0.4978 2.8507 -3.6104 6.4922 -0.9124 0.2530 2.2514 -2.5688 2.8342 5.3984 -2.7374 1.7041 -2.9020 -2.2369 4.1079 -0.8711 2.5644 -0.2889 -2.7757 1.4696 -4.7173 -1.2939 1.7561 -5.0374 3.2788 -0.7610 0.0894 -1.1087 0.0147 1.2552 -0.1300 -1.5879 2.7714 -2.7253 1.1187 -3.1276 1.2328 -1.5829 2.1035 1.6041 -0.6738 0.7973 0.0993 0.2696 0.3372 -0.3813 1.5933 -3.6420 -1.2088 1.5692 -2.6140 4.9904 -1.5270 0.7476 -2.7040 -1.0860 3.3985 -0.5857 1.5111 -0.8508 -1.2569 -0.8610 2.4160
-3.8919 -0.3927 3.3185 -2.2904 3.5161 -1.5384 -1.0793 0.3060 -4.1891 5.3687 -0.9598 -0.7964 2.2786 -1.8187 3.1099 4.3519 -3.0188 0.0913 -2.3346 -0.9190 4.9404 -1.8542 -0.6453 -1.7556 -0.5868 3.6587 -3.2042 -0.1780 2.5419 -4.1186 2.4613 -0.9833 -0.3790 -1.3735 -0.3652 1.2364 -0.1051 -1.1513 2.9962 -0.8678 2.9738 -1.8697 1.1156 -1.2767 2.2009 1.1575 -0.9010 0.6663 -0.2880 -0.3833 0.2045 -0.2742 1.2788 -3.3556 -0.8266 1.5081 -2.2323 3.9950 -1.7256 -0.2806 -2.5226 -0.6679 3.6392 -0.9617 0.1456 -1.2418 -1.2941 -0.7204 2.5577
-3.8988 -0.4021 3.3175 -2.3046 3.5018 -1.5436 -1.0624 0.3241 -4.2130 5.3678 -0.9567 -0.7950 2.2925 -1.8107 3.1091 4.3473 -3.0223 0.0933 -2.3245 -0.9064 4.9528 -1.8557 -0.6565 -1.7513 -0.5786 3.6750 -3.1911 -0.1638 2.5680 -4.1151 2.4572 -0.9873 -0.3862 -1.3811 -0.3725 1.2383 -0.1026 -1.1484 3.0014 -0.8718 2.9711 -1.8664 1.1183 -1.2750 2.2063 1.1535 -0.9052 0.6677 -0.3017 -0.3919 0.2052 -0.2682 1.2845 -3.3636 -0.8277 1.5016 -2.2436 4.0032 -1.7321 -0.2836 -2.5258 -0.6676 3.6498 -0.9783 0.1315 -1.2507 -1.2942 -0.7227 2.5619
-3.9011 -0.4022 3.3181 -2.3098 3.4969 -1.5449 -1.0606 0.3285 -4.2166 5.3674 -0.9554 -0.7936 2.3024 -1.8065 3.1060 4.3418 -3.0268 0.0927 -2.3216 -0.9017 4.9569 -1.8556 -0.6595 -1.7475 -0.5700 3.6860 -3.1848 -0.1571 2.5764 -4.1170 2.4550 -0.9900 -0.3912 -1.3865 -0.3747 1.2379 -0.1003 -1.1471 3.0051 -0.8724 2.9712 -1.8642 1.1204 -1.2749 2.2105 1.1506 -0.9075 0.6688 -0.3122 -0.3954 0.2048 -0.2644 1.2859 -3.3691 -0.8273 1.5002 -2.2505 4.0103 -1.7377 -0.2853 -2.5262 -0.6676 3.6558 -0.9888 0.1253 -1.2566 -1.2941 -0.7234 2.5648
-3.9028 -0.4027 3.3187 -2.3153 3.4920 -1.5467 -1.0584 0.3325 -4.2197 5.3673 -0.9534 -0.7916 2.3111 -1.8033 3.1027 4.3376 -3.0299 0.0923 -2.3198 -0.8981 4.9600 -1.8549 -0.6625 -1.7444 -0.5636 3.6939 -3.1801 -0.1509 2.5846 -4.1180 2.4536 -0.9923 -0.3956 -1.3913 -0.3765 1.2375 -0.0977 -1.1464 3.0093 -0.8733 2.9710 -1.8624 1.1227 -1.2750 2.2147 1.1480 -0.9095 0.6700 -0.3220 -0.3978 0.2046 -0.2608 1.2870 -3.3742 -0.8271 1.4989 -2.2555 4.0153 -1.7421 -0.2876 -2.5268 -0.6665 3.6601 -0.9968 0.1201 -1.2618 -1.2941 -0.7239 2.5677
-3.9040 -0.4024 3.3196 -2.3201 3.4876 -1.5484 -1.0563 0.3360 -4.2225 5.3671 -0.9519 -0.7898 2.3188 -1.8010 3.0993 4.3338 -3.0323 0.0923 -2.3183 -0.8948 4.9625 -1.8541 -0.6652 -1.7419 -0.5574 3.7009 -3.1757 -0.1457 2.5911 -4.1190 2.4522 -0.9944 -0.3996 -1.3958 -0.3780 1.2371 -0.0948 -1.1466 3.0139 -0.8741 2.9710 -1.8609 1.1249 -1.2756 2.2183 1.1454 -0.9113 0.6712 -0.3312 -0.3997 0.2044 -0.2576 1.2882 -3.3783 -0.8268 1.4978 -2.2598 4.0190 -1.7450 -0.2899 -2.5274 -0.6658 3.6635 -1.0035 0.1159 -1.2662 -1.2942 -0.7245 2.5699
-3.9052 -0.4026 3.3201 -2.3246 3.4835 -1.5500 -1.0531 0.3399 -4.2257 5.3670 -0.9503 -0.7880 2.3259 -1.7993 3.0959 4.3308 -3.0344 0.0924 -2.3167 -0.8915 4.9650 -1.8533 -0.6679 -1.7396 -0.5521 3.7065 -3.1722 -0.1405 2.5977 -4.1201 2.4511 -0.9963 -0.4032 -1.4001 -0.3791 1.2367 -0.0920 -1.1469 3.0182 -0.8752 2.9706 -1.8596 1.1272 -1.2762 2.2216 1.1430 -0.9128 0.6723 -0.3400 -0.4011 0.2045 -0.2548 1.2889 -3.3822 -0.8269 1.4966 -2.2632 4.0217 -1.7468 -0.2918 -2.5279 -0.6653 3.6666 -1.0097 0.1120 -1.2701 -1.2946 -0.7251 2.5724
-3.9062 -0.4022 3.3202 -2.3273 3.4810 -1.5507 -1.0525 0.3425 -4.2267 5.3669 -0.9493 -0.7865 2.3320 -1.7981 3.0921 4.3276 -3.0365 0.0923 -2.3162 -0.8895 4.9664 -1.8520 -0.6691 -1.7380 -0.5470 3.7111 -3.1700 -0.1367 2.6012 -4.1216 2.4504 -0.9979 -0.4067 -1.4039 -0.3795 1.2362 -0.0888 -1.1478 3.0228 -0.8756 2.9708 -1.8585 1.1295 -1.2772 2.2246 1.1408 -0.9141 0.6734 -0.3477 -0.4016 0.2044 -0.2524 1.2895 -3.3856 -0.8267 1.4962 -2.2654 4.0237 -1.7491 -0.2936 -2.5283 -0.6645 3.6689 -1.0147 0.1098 -1.2729 -1.2948 -0.7255 2.5748
-3.9078 -0.4042 3.3211 -2.3378 3.4713 -1.5554 -1.0450 0.3510 -4.2368 5.3669 -0.9453 -0.7820 2.3433 -1.7967 3.0851 4.3237 -3.0372 0.0934 -2.3140 -0.8831 4.9706 -1.8497 -0.6749 -1.7355 -0.5390 3.7204 -3.1630 -0.1277 2.6130 -4.1221 2.4483 -1.0023 -0.4138 -1.4112 -0.3808 1.2362 -0.0837 -1.1493 3.0304 -0.8796 2.9688 -1.8572 1.1336 -1.2795 2.2296 1.1362 -0.9174 0.6750 -0.3622 -0.4036 0.2049 -0.2469 1.2919 -3.3911 -0.8275 1.4935 -2.2704 4.0275 -1.7502 -0.2951 -2.5286 -0.6629 3.6740 -1.0235 0.1037 -1.2781 -1.2954 -0.7263 2.5800
-3.9082 -0.4037 3.3219 -2.3410 3.4679 -1.5570 -1.0410 0.3553 -4.2408 5.3669 -0.9437 -0.7803 2.3488 -1.7957 3.0818 4.3218 -3.0376 0.0939 -2.3134 -0.8811 4.9718 -1.8484 -0.6769 -1.7342 -0.5362 3.7230 -3.1611 -0.1242 2.6184 -4.1217 2.4477 -1.0034 -0.4165 -1.4145 -0.3814 1.2357 -0.0810 -1.1502 3.0342 -0.8809 2.9681 -1.8566 1.1358 -1.2802 2.2319 1.1344 -0.9183 0.6759 -0.3685 -0.4041 0.2051 -0.2455 1.2921 -3.3935 -0.8281 1.4919 -2.2724 4.0289 -1.7518 -0.2959 -2.5292 -0.6626 3.6754 -1.0277 0.1014 -1.2800 -1.2963 -0.7272 2.5822
-4.2457 -1.4359 3.0889 -3.8988 2.6885 -2.2568 0.8090 1.7990 -4.6428 6.5016 -1.1788 0.2021 2.2579 -2.6312 2.9096 5.4556 -2.6551 2.0242 -2.6244 -1.3718 4.8307 -0.6214 2.7653 -0.1617 -2.9963 2.0605 -4.5977 -1.5943 2.0347 -5.1326 3.3209 -0.8090 0.1950 -1.1424 -0.0256 1.2338 -0.1494 -1.6528 2.7877 -2.7856 1.7245 -2.9864 1.2169 -1.6223 2.1370 1.6132 -0.6990 0.8277 0.0957 0.2497 0.3084 -0.5694 1.2956 -3.8939 -1.1270 1.6891 -2.6551 5.0190 -1.5954 0.8820 -2.7366 -1.2221 3.4221 -0.4874 1.5116 -0.9249 -1.3112 -0.9196 2.4028
-4.2479 -1.4618 3.0775 -3.8823 2.7358 -2.2416 0.8159 1.8263 -4.6302 6.4982 -1.2005 0.1890 2.2592 -2.6327 2.9069 5.4539 -2.6536 2.0253 -2.6250 -1.3736 4.8314 -0.6178 2.7620 -0.1680 -2.9996 2.0580 -4.5956 -1.6072 1.9786 -5.1530 3.3290 -0.7941 0.2083 -1.1482 -0.0184 1.2372 -0.1511 -1.6568 2.7864 -2.7817 1.7441 -2.9902 1.2179 -1.6208 2.1403 1.6121 -0.6904 0.8392 0.0957 0.2653 0.3169 -0.5692 1.2786 -3.9132 -1.1357 1.6834 -2.6593 5.0201 -1.5978 0.8831 -2.7411 -1.2396 3.4239 -0.4830 1.5340 -0.9187 -1.3123 -0.9256 2.4044
-3.8947 0.0543 3.7403 -4.1039 1.9439 -2.4914 0.9133 2.7651 -3.8363 6.2989 -2.0059 -0.2102 2.5044 -1.5848 3.3888 5.5738 -2.1835 2.2511 -2.7510 -1.8190 4.5712 -1.5786 -1.0552 -2.0816 -2.6476 3.3427 -4.0240 -1.3534 2.9154 -4.7566 3.2843 -0.9556 0.1001 -1.2249 -0.4760 1.0071 -0.0208 -1.1165 3.0181 -2.4792 2.5356 -2.5522 1.3307 -1.1675 2.3386 1.5918 -0.8413 0.7277 -0.0400 -0.3974 -0.0063 -0.4134 1.8827 -3.6342 -1.1813 1.4673 -2.7520 4.9915 -1.7164 0.8147 -2.6549 -0.8355 3.5283 -0.8659 0.0386 -1.5843 -1.2793 -0.7911 2.4432
-3.9628 -1.0522 4.7217 -4.0762 2.6633 -3.5199 1.2165 1.8413 -4.8448 6.4050 -1.7527 0.0911 2.4001 -2.1086 3.2810 5.4903 -2.4337 2.1610 -2.4982 -1.7079 5.3128 -2.1956 0.9913 -0.9027 -2.2130 2.9471 -5.2685 -0.9185 2.6786 -5.4417 3.1165 -0.9275 0.2113 -1.4095 -0.2623 1.4292 -0.0752 -1.4320 3.2476 -2.4191 2.2755 -3.6433 1.1834 -1.3753 2.3684 1.4609 -0.7547 0.8145 -0.2301 -0.0236 0.1904 -0.1374 1.8451 -4.0450 -1.1142 1.5796 -2.8667 4.8871 -1.7122 0.9080 -2.5765 -1.1933 4.2086 -0.9886 0.8260 -1.2564 -1.3449 -0.9118 2.8431
-4.0017 -1.0350 4.7095 -4.0719 2.6673 -3.5249 1.2280 1.8368 -4.8414 6.4101 -1.7574 0.0910 2.4076 -2.1113 3.2785 5.4928 -2.4387 2.1632 -2.4662 -1.7337 5.3521 -2.1900 0.9916 -0.9056 -2.2024 2.9482 -5.2722 -0.9055 2.6780 -5.4445 3.1217 -0.9315 0.2135 -1.4209 -0.2600 1.4320 -0.0881 -1.4296 3.2487 -2.4454 2.3003 -3.6783 1.1899 -1.3851 2.3842 1.4511 -0.7605 0.8314 -0.2245 -0.0229 0.1855 -0.1560 1.8750 -4.0983 -1.0925 1.5808 -2.8797 4.8979 -1.7184 0.9091 -2.5838 -1.2015 4.2328 -1.0025 0.8282 -1.2512 -1.3478 -0.9204 2.8645
-3.8727 0.0739 3.8170 -4.1281 1.7881 -2.6805 0.9117 2.2155 -4.4391 6.2897 -2.0284 -0.2067 2.5109 -1.6095 3.4037 5.5752 -2.1834 2.2519 -2.7391 -1.8266 4.6091 -1.6040 -1.1343 -2.0466 -2.6419 3.4657 -3.9219 -1.2956 3.2498 -4.5518 3.2799 -0.9588 0.1142 -1.2414 -0.4590 1.0236 -0.0178 -1.1266 3.0414 -2.6109 2.4022 -2.6293 1.3293 -1.1765 2.3507 1.5800 -0.8419 0.7492 -0.0557 -0.3819 0.0031 -0.3146 2.3353 -3.3906 -1.1717 1.4740 -2.7591 4.9852 -1.7269 0.8162 -2.6435 -0.8425 3.5871 -0.8460 0.0813 -1.6043 -1.2790 -0.7894 2.4628
-4.0484 -0.8705 3.2044 -3.6423 2.9466 -1.9768 -0.1065 0.7421 -4.4899 5.9940 -2.5126 -0.2960 2.3747 -1.8215 3.2418 5.6445 -1.7516 1.8872 -2.4249 -0.6782 4.8784 -1.9524 -0.7868 -1.8567 -2.0693 3.7676 -3.6144 -0.8769 3.1302 -4.3346 3.0605 -1.1222 -0.1558 -1.2012 -0.4386 1.0572 -0.0219 -1.1807 2.9111 -2.0898 2.9404 -2.2272 1.2836 -1.3006 2.1837 1.5222 -0.9457 0.5339 -0.0557 -0.4142 -0.0105 -0.2650 1.8876 -3.4478 -1.1622 1.5615 -2.5316 4.7500 -1.7452 0.5507 -2.5598 -0.7491 3.5260 -0.9271 0.1210 -1.4644 -1.2261 -0.7795 2.4311
-4.0158 -0.7350 3.2476 -3.4453 3.1156 -1.8935 -0.2711 0.5573 -4.4918 6.1429 -1.2450 0.0906 2.3813 -1.8071 3.2315 5.1793 -3.0662 1.2866 -2.3390 -0.6554 4.9047 -1.9350 -0.7583 -1.8320 -1.8460 3.8018 -3.5693 -0.8234 2.9997 -4.3744 2.9796 -1.1387 -0.1967 -1.2162 -0.4153 1.0864 -0.0212 -1.1477 2.9344 -1.8976 2.9967 -2.1792 1.2586 -1.2858 2.1937 1.4566 -0.9405 0.5450 -0.0869 -0.4215 0.0152 -0.2888 1.7505 -3.5004 -1.1357 1.5460 -2.5066 4.6345 -1.8407 0.4344 -2.5304 -0.6831 3.5553 -0.9542 0.1106 -1.4392 -1.2263 -0.7381 2.4577
-4.0935 -0.9786 3.1685 -3.8678 2.5836 -2.2012 -0.0342 0.9407 -4.5307 6.0574 -2.4699 -0.4973 2.5007 -1.6852 3.2566 5.5732 -2.1051 2.0074 -2.4473 -0.6044 4.8929 -1.7965 -0.7682 -1.8934 -2.1051 3.8752 -3.5592 -0.8550 3.3292 -4.2806 3.1989 -1.0599 -0.0511 -1.2424 -0.4580 1.0280 -0.0048 -1.1444 2.9879 -2.2405 2.8665 -2.2875 1.3310 -1.2358 2.2729 1.5362 -0.9131 0.6857 -0.0996 -0.4316 0.0003 -0.2675 2.0015 -3.4473 -1.1991 1.6094 -2.5961 4.8976 -1.8692 0.5846 -2.6178 -0.7742 3.5486 -0.9871 0.0782 -1.5421 -1.2368 -0.7866 2.4530
-4.0818 -0.9459 3.2002 -3.8142 2.7231 -2.1082 -0.0563 0.8752 -4.5350 6.1010 -2.3777 -0.4305 2.4235 -1.7152 3.2920 5.5923 -2.1145 2.0064 -2.4434 -0.6257 4.8919 -1.8465 -0.8039 -1.9019 -2.1430 3.8055 -3.6056 -0.8978 3.2602 -4.3073 3.1361 -1.0609 -0.0889 -1.2109 -0.4571 1.0353 -0.0236 -1.1424 2.9365 -2.1767 2.8993 -2.2504 1.3076 -1.2420 2.2296 1.5595 -0.9112 0.6077 -0.0458 -0.4316 -0.0136 -0.2771 1.9691 -3.4381 -1.1784 1.5931 -2.5643 4.8440 -1.8258 0.5868 -2.5977 -0.7689 3.5306 -0.9398 0.0800 -1.5030 -1.2307 -0.7826 2.4297
-4.0921 -0.9703 3.1755 -3.8520 2.6280 -2.1692 -0.0440 0.9226 -4.5299 6.0712 -2.4395 -0.4802 2.4812 -1.6945 3.2652 5.5784 -2.1058 2.0104 -2.4428 -0.6016 4.8959 -1.8105 -0.7759 -1.8923 -2.1096 3.8626 -3.5698 -0.8681 3.3086 -4.2892 3.1817 -1.0665 -0.0672 -1.2337 -0.4599 1.0270 -0.0112 -1.1438 2.9743 -2.2222 2.8778 -2.2765 1.3233 -1.2397 2.2622 1.5396 -0.9180 0.6671 -0.0860 -0.4371 -0.0053 -0.2699 1.9891 -3.4471 -1.1940 1.6051 -2.5910 4.8893 -1.8587 0.5830 -2.6145 -0.7705 3.5471 -0.9794 0.0736 -1.5359 -1.2349 -0.7857 2.4459
-4.0935 -0.9784 3.1706 -3.8616 2.6023 -2.1875 -0.0360 0.9340 -4.5312 6.0610 -2.4641 -0.4925 2.4942 -1.6856 3.2619 5.5758 -2.1051 2.0094 -2.4475 -0.6046 4.8938 -1.8035 -0.7729 -1.8934 -2.1075 3.8708 -3.5626 -0.8580 3.3242 -4.2828 3.1923 -1.0580 -0.0570 -1.2387 -0.4590 1.0271 -0.0079 -1.1431 2.9821 -2.2361 2.8696 -2.2844 1.3278 -1.2352 2.2684 1.5388 -0.9126 0.6786 -0.0926 -0.4328 -0.0013 -0.2692 1.9954 -3.4469 -1.1971 1.6052 -2.5953 4.8937 -1.8653 0.5831 -2.6164 -0.7743 3.5486 -0.9829 0.0761 -1.5391 -1.2355 -0.7865 2.4506
-4.0842 -0.9525 3.1963 -3.8186 2.7130 -2.1132 -0.0539 0.8841 -4.5333 6.0965 -2.3879 -0.4382 2.4337 -1.7087 3.2894 5.5906 -2.1128 2.0083 -2.4430 -0.6199 4.8934 -1.8424 -0.8006 -1.8996 -2.1357 3.8178 -3.5990 -0.8920 3.2696 -4.3039 3.1408 -1.0623 -0.0896 -1.2148 -0.4592 1.0329 -0.0220 -1.1404 2.9418 -2.1833 2.8961 -2.2527 1.3089 -1.2397 2.2336 1.5562 -0.9136 0.6165 -0.0513 -0.4362 -0.0134 -0.2765 1.9685 -3.4406 -1.1817 1.5929 -2.5711 4.8530 -1.8319 0.5852 -2.6002 -0.7680 3.5357 -0.9489 0.0739 -1.5101 -1.2310 -0.7820 2.4316
-4.0917 -0.9695 3.1774 -3.8483 2.6380 -2.1621 -0.0449 0.9189 -4.5301 6.0738 -2.4348 -0.4764 2.4768 -1.6953 3.2680 5.5799 -2.1057 2.0110 -2.4428 -0.6028 4.8961 -1.8142 -0.7786 -1.8928 -2.1118 3.8590 -3.5723 -0.8703 3.3052 -4.2905 3.1772 -1.0665 -0.0707 -1.2317 -0.4602 1.0269 -0.0123 -1.1430 2.9713 -2.2183 2.8798 -2.2739 1.3215 -1.2395 2.2595 1.5410 -0.9180 0.6622 -0.0823 -0.4380 -0.0064 -0.2704 1.9865 -3.4467 -1.1926 1.6035 -2.5899 4.8865 -1.8562 0.5825 -2.6134 -0.7697 3.5468 -0.9770 0.0721 -1.5341 -1.2343 -0.7851 2.4444
-4.0914 -0.9683 3.1792 -3.8443 2.6488 -2.1546 -0.0461 0.9149 -4.5304 6.0760 -2.4307 -0.4726 2.4725 -1.6959 3.2709 5.5812 -2.1066 2.0111 -2.4429 -0.6041 4.8962 -1.8181 -0.7812 -1.8933 -2.1137 3.8557 -3.5747 -0.8732 3.3001 -4.2926 3.1728 -1.0654 -0.0741 -1.2298 -0.4607 1.0269 -0.0137 -1.1424 2.9680 -2.2140 2.8823 -2.2709 1.3197 -1.2389 2.2567 1.5425 -0.9176 0.6572 -0.0784 -0.4387 -0.0074 -0.2709 1.9838 -3.4465 -1.1913 1.6024 -2.5883 4.8836 -1.8539 0.5820 -2.6122 -0.7700 3.5463 -0.9744 0.0713 -1.5319 -1.2339 -0.7850 2.4428
-4.0905 -0.9659 3.1819 -3.8401 2.6597 -2.1474 -0.0473 0.9104 -4.5306 6.0785 -2.4259 -0.4683 2.4676 -1.6967 3.2738 5.5826 -2.1074 2.0110 -2.4427 -0.6051 4.8962 -1.8222 -0.7841 -1.8938 -2.1161 3.8512 -3.5779 -0.8755 3.2965 -4.2941 3.1680 -1.0641 -0.0773 -1.2281 -0.4613 1.0269 -0.0147 -1.1425 2.9651 -2.2090 2.8846 -2.2678 1.3177 -1.2387 2.2537 1.5443 -0.9171 0.6517 -0.0743 -0.4393 -0.0085 -0.2716 1.9806 -3.4464 -1.1901 1.6008 -2.5867 4.8802 -1.8508 0.5817 -2.6111 -0.7705 3.5453 -0.9717 0.0707 -1.5293 -1.2336 -0.7853 2.4409
-4.0885 -0.9623 3.1873 -3.8320 2.6803 -2.1334 -0.0496 0.9013 -4.5312 6.0852 -2.4120 -0.4576 2.4560 -1.6998 3.2799 5.5858 -2.1087 2.0108 -2.4423 -0.6085 4.8959 -1.8302 -0.7905 -1.8954 -2.1222 3.8407 -3.5851 -0.8812 3.2877 -4.2973 3.1572 -1.0643 -0.0841 -1.2236 -0.4614 1.0284 -0.0176 -1.1408 2.9565 -2.1998 2.8887 -2.2614 1.3137 -1.2385 2.2461 1.5483 -0.9169 0.6392 -0.0659 -0.4402 -0.0110 -0.2733 1.9751 -3.4442 -1.1866 1.5976 -2.5823 4.8718 -1.8444 0.5824 -2.6076 -0.7688 3.5430 -0.9652 0.0694 -1.5236 -1.2323 -0.7838 2.4371

$$$$
CHEMBL430814
 OpenBabel02201516203D

 25 26  0  0  1  0  0  0  0  0999 V2000
   -4.5750    5.0887    0.5249 O   0  0  0  0  0
    0.2135    1.4044   -0.1762 C   0  0  0  0  0
   -3.3352   -2.7308    4.3834 C   0  0  0  0  0
   -5.9818    1.2774    3.7135 N   0  0  0  0  0
   -2.1608   -0.6885    4.2447 O   0  0  0  0  0
   -3.0809    4.2378   -0.7146 O   0  0  0  0  0
    0.1619   -0.0987    0.1049 C   0  0  0  0  0
   -4.9788   -4.1922   -0.5949 C   0  0  0  0  0
   -4.9131   -2.6948   -0.9018 C   0  0  0  0  0
   -4.3433   -4.4614    0.7706 C   0  0  0  0  0
   -3.4519   -2.2417   -0.9211 C   0  0  0  0  0
   -2.8821   -4.0084    0.7513 C   0  0  0  0  0
   -1.3551   -2.0579    0.4251 C   0  0  0  0  0
   -4.9513    2.8011    2.0931 C   0  0  0  0  0
   -4.0979   -0.7185    3.1638 N   0  0  0  0  0
   -1.8504    0.0831    1.4308 O   0  0  0  0  0
   -3.1925    1.8771    0.5956 C   0  0  0  0  0
   -5.2214    1.3400    2.4582 C   0  0  0  0  0
   -2.8164   -2.5109    0.4444 C   0  0  0  0  0
   -1.2947   -0.5370    0.2695 C   0  0  0  0  0
   -3.8747    0.6275    2.6303 C   0  0  0  0  0
   -3.1965    0.5322    1.2621 C   0  0  0  0  0
   -3.1548   -1.3062    3.9263 C   0  0  0  0  0
   -3.8696    4.1376    0.2157 C   0  0  0  0  0
   -3.9696    2.8775    0.9602 C   0  0  0  0  0
  1 24  1  0  0  0
  2  7  1  0  0  0
  3 23  1  0  0  0
  4 18  1  0  0  0
  5 23  2  0  0  0
  6 24  2  0  0  0
  7 20  1  0  0  0
  8  9  1  0  0  0
  8 10  1  0  0  0
  9 11  1  0  0  0
 10 12  1  0  0  0
 11 19  1  0  0  0
 12 19  1  0  0  0
 13 19  1  0  0  0
 13 20  1  0  0  0
 14 18  1  0  0  0
 14 25  1  0  0  0
 15 21  1  0  0  0
 15 23  1  0  0  0
 16 20  1  0  0  0
 16 22  1  0  0  0
 17 22  1  0  0  0
 17 25  2  0  0  0
 18 21  1  0  0  0
 21 22  1  0  0  0
 24 25  1  0  0  0
M  CHG  2  22   1  25  -1
M  END

>  <MOLID> (CHEMBL430814)
CHEMBL430814

>  <SMILES_CANONICAL> (CHEMBL430814)
CC[C@H](O[C+]1C=[C-](C[C@@H]([C@H]1NC(=O)C)N)C(=O)O)CC1CCCCC1	CHEMBL430814

>  <FINGERPRINT> (CHEMBL430814)
0000000000000111000000000100000000001001000000000111000000100000000000000001000000000000000000001000000000000001000001010000000000000000000110000000000010000000000000000000000000001000000000000000001000001000000000011000000000111000000000000000010000000010000100010000000001000000000000000000000000010000000000001000100001000000001000000000000000000000010000010000000110010000000000010000010000000010100000000001101000000001100010000000000000000100000000000000000000010100000010000000000000001000000100000000100000010000101000000100000000000000000000000000000000000000011000000110001011000001001000000001000000000000000000000000001000000001000000000000000000000000001000000011000000000100000011101000000000010011000000001000000000000000000000100001000000000000000110000001000000000000000101000000000000000000000000000001010000000000000000001100000001000000000000001001000000000000000000000000000100001100000000000000001000000000000000000000010000000100000000010000010000000010000000000000000000000000000000000000001000010000

>  <MACCS166> (CHEMBL430814)
000000000000000000000000000000000000000000000000010001000000000000000000000100100001000001010010101000010001011001011100001001111011100100111110111011110111111110111000

>  <OB_MW> (CHEMBL430814)
351.228

>  <OB_logP> (CHEMBL430814)
3.6219

>  <OB_PSA> (CHEMBL430814)
101.65

>  <OB_MR> (CHEMBL430814)
96.8039

>  <OB_ATOMIC_CHARGES> (CHEMBL430814)
-0.2815418388 0.0027445122 0.0965527884 -0.1289700992 -0.2732049579 -0.2815418388 0.0345448503 8.4e-09 1.0439e-06 1.0439e-06 8.26242e-05 8.26242e-05 0.0345427608 -0.1318725412 -0.1568769949 -0.1867233764 0.0333379436 0.1314725163 0.0025792656 0.1678111747 0.3100146002 0.3389705974 0.2453647327 0.2361089266 -0.1934803663

>  <MCT_HBD> (CHEMBL430814)
3

>  <MCT_HBA> (CHEMBL430814)
6

>  <ENSEMBLE_TOTAL> (CHEMBL430814)
50

>  <ENSEMBLE_RMSD> (CHEMBL430814)
0.000 0.193 0.235 0.402 0.410 0.562 0.640 0.669 0.922 1.157 1.249 2.512 2.530 2.631 2.633 2.658 2.678 2.704 2.713 2.715 2.724 2.725 2.736 2.755 2.796 2.826 3.008 3.014 3.022 3.099 3.103 3.119 3.256 3.277 3.291 3.305 3.391 3.410 3.451 3.521 3.528 3.530 3.603 3.722 3.746 3.755 3.843 3.896 3.916 3.937

>  <ENSEMBLE_COORDS> (CHEMBL430814)
-1.2881 5.1672 -0.7175 3.5004 1.4829 -1.4186 -0.0483 -2.6523 3.1410 -2.6949 1.3559 2.4711 1.1261 -0.6100 3.0023 0.2060 4.3163 -1.9570 3.4488 -0.0202 -1.1375 -1.6919 -4.1137 -1.8373 -1.6262 -2.6163 -2.1442 -1.0564 -4.3829 -0.4718 -0.1650 -2.1632 -2.1635 0.4048 -3.9299 -0.4911 1.9318 -1.9794 -0.8173 -1.6644 2.8796 0.8507 -0.8110 -0.6400 1.9214 1.4365 0.1616 0.1884 0.0944 1.9556 -0.6468 -1.9345 1.4185 1.2158 0.4705 -2.4324 -0.7980 1.9922 -0.4585 -0.9729 -0.5878 0.7060 1.3879 0.0904 0.6107 0.0197 0.1321 -1.2277 2.6839 -0.5827 4.2161 -1.0267 -0.6827 2.9560 -0.2822
-1.3245 5.3368 -0.6293 3.5100 1.4350 -1.4486 -0.0337 -2.5892 3.2148 -2.6860 1.4153 2.4431 1.1142 -0.5910 3.0071 0.3372 4.5114 -1.7981 3.4153 -0.0434 -1.1694 -1.5264 -4.3990 -1.6931 -1.3625 -3.0695 -2.0940 -1.0870 -4.3757 -0.5001 -0.0643 -2.4910 -2.0809 0.2798 -3.8820 -0.7157 1.8199 -1.9581 -0.9827 -1.6907 2.8918 0.9053 -0.9327 -0.5578 1.8188 1.3220 0.1721 0.1134 0.1189 2.0019 -0.5927 -1.8868 1.4955 1.2064 0.3336 -2.4458 -0.9183 1.9194 -0.4451 -1.0078 -0.5733 0.7550 1.3761 0.0731 0.6282 0.0199 0.1157 -1.1740 2.6866 -0.5207 4.3442 -0.9371 -0.6706 3.0344 -0.2237
-1.3881 5.4303 -0.6564 3.5213 1.4093 -1.5154 -0.2218 -2.6974 3.1984 -2.5362 1.5692 2.6035 1.1132 -0.7062 3.0338 0.1911 4.5099 -1.9353 3.4457 -0.0801 -1.1395 -1.4829 -4.4121 -1.8332 -1.3802 -3.0884 -2.1920 -1.0925 -4.3865 -0.5352 0.0629 -2.6960 -2.1197 0.3231 -3.9026 -0.5556 1.8533 -1.9311 -0.8857 -1.6763 2.9028 0.9837 -0.9570 -0.5278 1.7878 1.3455 0.1987 0.0697 0.2077 2.0392 -0.5046 -1.8204 1.5642 1.2873 0.3654 -2.4630 -0.9518 1.8738 -0.4150 -1.0847 -0.5371 0.8143 1.3931 0.0244 0.6162 0.0768 0.0601 -1.2320 2.6712 -0.5974 4.3871 -0.9957 -0.6977 3.0971 -0.2005
-1.4898 5.4071 -0.7264 3.5125 1.3931 -1.5182 -0.2031 -2.6737 3.2105 -2.4983 1.6138 2.6638 1.1327 -0.7039 3.0347 0.2500 4.5704 -1.8512 3.4215 -0.1027 -1.1421 -1.7102 -4.2164 -1.7835 -0.6505 -3.9562 -2.4624 -1.2313 -4.2950 -0.5181 -0.1054 -2.5563 -2.1167 0.2119 -3.8643 -0.6233 1.7826 -1.9215 -0.9354 -1.6462 2.9447 1.0364 -0.9489 -0.4944 1.8197 1.3348 0.2123 0.0725 0.2163 2.0725 -0.4753 -1.7983 1.6070 1.3384 0.2993 -2.4665 -1.0033 1.8317 -0.4052 -1.1016 -0.5218 0.8462 1.4273 0.0255 0.6514 0.1028 0.0749 -1.2115 2.6872 -0.6037 4.4151 -0.9729 -0.6862 3.1340 -0.1629
-1.5782 5.2850 -0.9364 3.5210 1.2939 -1.4503 -0.0975 -2.5069 3.4774 -2.4847 1.7029 2.7154 1.1969 -0.5113 3.2139 0.2287 4.4386 -1.9554 3.4189 -0.1782 -1.0335 -1.7651 -4.2148 -1.8349 -1.1573 -3.2871 -2.6856 -0.7277 -4.8647 -1.3547 -0.3416 -2.3387 -1.8401 0.1311 -3.9028 -0.6060 1.7344 -1.9832 -0.7875 -1.6482 2.9698 1.0289 -0.9150 -0.3795 2.0540 1.3359 0.2007 0.1691 0.2035 2.0263 -0.4549 -1.7812 1.6532 1.4031 0.6100 -2.7911 -1.4454 1.8007 -0.4810 -1.0284 -0.4989 0.9056 1.5251 0.0190 0.6128 0.2035 0.1457 -1.0551 2.9105 -0.6477 4.3171 -1.0886 -0.7029 3.0888 -0.1993
-1.2823 5.6690 -0.3101 3.7432 1.2287 -1.3444 -0.3745 -2.6130 3.1803 -2.8624 1.4143 2.1542 1.0743 -0.7169 3.3034 0.3196 4.9102 -1.6370 3.1130 -0.0202 -1.8254 -1.3252 -4.8971 -1.6630 -1.3951 -3.6228 -2.1418 -0.8651 -4.6554 -0.3871 -0.0713 -2.9984 -2.1723 0.4423 -4.0266 -0.5585 1.7146 -1.9343 -1.2335 -1.9017 2.8595 0.7071 -0.9337 -0.3212 1.9042 0.9221 0.2178 -0.6778 0.3391 2.2822 -0.3585 -1.5186 1.8347 1.5373 0.3344 -2.5727 -0.9685 2.0194 -0.5322 -0.8241 -0.7660 0.7218 1.0207 0.4372 0.9112 0.4562 -0.0304 -1.0767 2.7230 -0.4955 4.6671 -0.7489 -0.6374 3.2711 -0.1353
-1.2968 5.6753 -0.3161 3.7977 1.1837 -1.2345 -0.3405 -2.5629 3.2631 -2.8608 1.4220 2.1596 1.0920 -0.6624 3.3449 0.2987 4.9272 -1.6416 3.1442 -0.0108 -1.7761 -1.6011 -4.7260 -1.5600 -0.7133 -4.2438 -2.3204 -0.9261 -4.5902 -0.3840 -0.4622 -2.7958 -2.0585 0.4190 -4.0665 -0.8302 1.5918 -1.8925 -1.4299 -1.9054 2.8588 0.7020 -0.9180 -0.2968 1.9402 0.9539 0.2474 -0.6614 0.3476 2.2946 -0.3436 -1.5171 1.8445 1.5389 0.3482 -2.6066 -0.9791 2.0154 -0.5585 -0.8025 -0.7539 0.7238 1.0269 0.4440 0.9180 0.4744 -0.0114 -1.0382 2.7702 -0.5075 4.6776 -0.7490 -0.6384 3.2781 -0.1330
-1.1882 5.7365 -0.2175 3.6990 1.2316 -1.3155 -0.2712 -2.5183 3.2606 -2.7852 1.5065 2.2749 0.9000 -0.5067 3.2909 0.4439 4.9773 -1.4910 3.0975 -0.0103 -1.8428 -1.5173 -4.8567 -1.4851 -0.6562 -4.3488 -2.2765 -0.8308 -4.6738 -0.3245 -0.4541 -2.8933 -2.0489 0.4824 -4.1106 -0.7966 1.5689 -1.9032 -1.4495 -1.7425 3.0263 0.9331 -1.0137 -0.3708 1.7564 0.8361 0.2323 -0.7057 0.2992 2.2819 -0.3929 -1.8328 1.6676 1.1322 0.3591 -2.6547 -0.9728 1.9739 -0.5634 -0.8652 -0.6771 0.8257 1.1833 0.3410 0.9154 0.3269 -0.0226 -1.0521 2.7422 -0.4066 4.7303 -0.6519 -0.6028 3.3311 -0.0644
-1.9006 4.9823 -1.1908 3.7098 1.0627 -1.2825 0.9592 -0.9587 4.9450 -2.5646 1.6507 2.7175 0.3057 -1.6845 2.8729 0.0168 4.2749 -2.1016 3.4271 -0.4210 -0.8070 -1.5114 -4.2588 -2.9308 -1.3545 -2.8542 -2.9504 -1.2370 -4.5396 -1.6506 0.0543 -2.5429 -2.6135 0.1203 -4.0857 -1.3517 1.6544 -2.1224 -1.0144 -1.9259 2.6776 0.8405 -0.2258 0.4266 2.9741 1.2013 -0.1568 0.2956 0.2245 1.8802 -0.3559 -1.3873 1.9684 1.8422 0.2245 -2.5674 -1.3954 1.7893 -0.5496 -0.9091 -0.6171 0.7283 1.5684 0.4550 0.8858 0.7025 0.3025 -0.7785 3.3658 -0.8786 4.0750 -1.2784 -0.8419 2.9075 -0.2922
-1.8401 5.1808 -1.0692 3.7295 0.7989 -1.7710 -0.0146 -1.3696 5.1771 -2.7640 1.8613 2.7647 1.5357 -0.6224 3.7437 -0.0054 4.4090 -2.0298 3.2324 -0.4871 -0.9903 -1.1066 -4.9124 -3.3062 -0.9258 -3.6064 -3.8248 -1.3764 -4.6956 -1.9629 0.2972 -2.9700 -3.1968 -0.1438 -4.1240 -1.3588 1.3974 -2.1460 -1.2136 -1.9675 2.7816 0.8541 -0.1844 0.7411 3.3474 1.0438 -0.3067 0.4228 0.2187 1.9694 -0.2016 -1.4894 2.1236 2.0283 0.0690 -2.6959 -1.8402 1.5824 -0.5659 -0.9802 -0.6418 0.8355 1.8661 0.5171 1.0283 0.9066 0.5452 -0.4605 3.9512 -0.8632 4.2317 -1.1545 -0.8455 3.0014 -0.1622
-1.8167 5.2822 -1.0376 3.6694 0.7793 -1.7809 -0.0738 -1.3194 5.2068 -2.6942 2.0701 2.8916 1.5368 -0.6401 3.7568 -0.0068 4.4574 -2.0270 3.1648 -0.4777 -0.9941 -1.4189 -4.8200 -3.3178 -0.7026 -3.8272 -3.9995 -0.8032 -5.2279 -2.2081 0.4323 -3.1594 -3.2365 -0.3819 -4.0858 -1.3179 1.3403 -2.2137 -1.1791 -1.9670 2.8822 0.8781 -0.1523 0.8404 3.4061 0.9605 -0.3155 0.4379 0.1830 2.0155 -0.2047 -1.4725 2.2542 2.0851 0.0593 -2.8058 -1.9415 1.5062 -0.6107 -0.9840 -0.6663 0.9195 1.9278 0.4757 1.0553 0.9098 0.5403 -0.4226 4.0114 -0.8587 4.3032 -1.1368 -0.8536 3.0667 -0.1459
0.8268 5.7815 1.2288 0.3294 1.0658 -3.8559 -3.2236 -2.3329 1.3694 -1.5049 1.7019 3.3807 -3.3916 -0.3881 0.0927 1.1167 5.1055 -0.8805 1.2376 0.0876 -3.2467 0.9574 -5.5779 0.1200 1.6118 -5.1352 -0.8679 1.1670 -4.5658 0.9788 0.9265 -3.9256 -1.5450 1.9350 -3.5601 0.0806 1.4867 -1.6752 -1.5396 -0.4949 3.1936 1.9893 -1.4462 -0.2346 1.5634 0.5326 0.3110 -0.7932 0.2883 2.3945 -0.2880 -0.6633 1.8342 2.1571 0.9379 -2.8794 -0.7625 0.4626 -0.5565 -1.9132 -0.9827 0.9595 1.0789 -0.3723 1.0084 -0.1395 -2.6678 -0.9152 0.8886 0.7399 4.8435 0.2697 0.1909 3.4596 0.6339
-0.8436 6.5648 -0.5483 4.4294 -0.0863 -1.7482 0.1311 0.5023 6.7891 -1.6742 3.7803 3.8618 0.4528 -1.1594 5.0229 -1.8024 5.1769 -2.1053 2.6491 -0.3510 -2.0980 -0.0952 -6.8048 -4.2573 0.9866 -5.9147 -4.7171 -1.2747 -5.9131 -3.9684 1.4964 -4.8356 -3.4774 -0.9172 -4.7357 -2.7750 0.9040 -2.8219 -1.4594 -1.7946 3.7975 1.3867 -0.7649 0.7830 4.0129 0.6108 -0.3704 0.2729 -0.2602 2.4709 -0.2200 -0.9436 3.1772 2.5930 0.3795 -3.7224 -2.9653 1.2196 -0.9929 -1.1676 -0.3605 1.5767 2.5005 -0.3269 1.0532 0.7802 0.0395 -0.0155 5.1516 -1.2080 5.1108 -0.9252 -1.0328 3.7302 0.0610
-0.8687 6.5749 -0.6026 4.4079 0.0404 -2.3016 -0.8232 0.2538 6.8851 -1.5195 3.8159 3.9607 -0.1097 -1.3242 5.1217 -2.0345 5.1019 -2.0713 2.6030 -0.2549 -2.4190 -0.0477 -6.8926 -4.2606 1.1170 -6.0563 -4.6686 -1.2350 -5.9552 -4.0864 1.5980 -4.8955 -3.4750 -0.9275 -4.7755 -2.8543 0.9301 -2.8244 -1.4634 -1.8011 3.7803 1.4104 0.1703 1.1418 4.2517 0.9723 -0.2673 0.3515 -0.1158 2.5173 -0.1649 -0.8975 3.2555 2.6329 0.4453 -3.7800 -2.9800 1.2570 -0.9678 -1.2737 -0.5165 1.5355 2.6062 0.0203 1.1378 0.8920 -0.2747 -0.0788 5.3340 -1.3131 5.1440 -0.9205 -1.0366 3.7734 0.0959
0.7031 5.6497 1.1495 0.6263 1.2230 -3.8727 -2.9579 -2.6544 1.0273 -1.7380 1.5344 3.1427 -3.3609 -0.6922 -0.1845 1.0533 5.0012 -0.9585 1.1729 -0.0639 -3.4073 1.9846 -4.9213 0.9778 2.4648 -3.6431 0.9428 0.6374 -4.6804 0.8121 2.1953 -3.0196 -0.3563 0.5011 -4.0412 -0.4901 0.8705 -1.9430 -1.8699 -0.6863 3.0520 1.8027 -1.4761 -0.4011 1.3630 0.5014 0.2029 -0.9600 0.2609 2.2624 -0.4190 -0.7986 1.6917 1.9822 0.9365 -2.5869 -0.4736 0.4565 -0.5614 -2.1102 -1.0543 0.8055 0.8845 -0.4270 0.8948 -0.2882 -2.6019 -1.1696 0.6265 0.6464 4.7227 0.1775 0.0900 3.3379 0.5017
0.7485 5.6488 1.1979 0.4202 1.1894 -3.9237 -3.0812 -2.5625 1.0172 -1.6403 1.5196 3.1962 -3.4128 -0.5710 -0.1439 1.0896 5.0234 -0.9141 1.0894 -0.0325 -3.4372 1.8702 -4.7962 1.2120 2.4397 -4.2911 0.1879 0.5814 -4.6465 0.7983 2.1427 -2.8448 0.0197 0.7377 -4.0994 -0.5950 1.0856 -1.9029 -1.8320 -0.5947 3.0438 1.8603 -1.4950 -0.3753 1.3767 0.4815 0.2328 -0.9837 0.2641 2.2835 -0.4122 -0.7385 1.6853 2.0106 0.9071 -2.6389 -0.5351 0.4015 -0.5793 -2.1158 -1.0327 0.8225 0.9060 -0.4274 0.9095 -0.2792 -2.6618 -1.0909 0.6395 0.6894 4.7313 0.2165 0.1357 3.3413 0.5330
0.4843 5.6852 1.0918 0.5324 1.1430 -3.9663 -2.9524 -2.6865 1.0816 -1.5907 1.4533 3.1950 -3.4233 -0.8483 -0.3689 1.2939 4.9581 -0.8233 1.1654 -0.0717 -3.4135 2.0572 -4.8033 1.0947 2.4970 -3.5136 1.0342 0.7076 -4.6130 0.8931 2.2404 -2.9342 -0.2868 0.5914 -4.0221 -0.4374 0.9280 -1.9544 -1.8741 -0.4158 2.9044 1.9232 -1.6687 -0.3406 1.3062 0.4707 0.2060 -1.0439 0.2040 2.2793 -0.4662 -1.2687 1.8428 1.7457 0.9670 -2.5543 -0.4528 0.4208 -0.5748 -2.1278 -0.8742 0.7197 0.9353 -0.5669 0.8838 -0.3610 -2.6240 -1.1517 0.6072 0.6793 4.6991 0.2079 0.1454 3.2939 0.5058
0.5323 5.6869 1.1248 0.3309 1.1214 -3.9976 -3.0488 -2.6119 1.1026 -1.4802 1.4356 3.2492 -3.4905 -0.7440 -0.3027 1.3586 4.9659 -0.7786 1.0282 -0.0511 -3.4627 1.9830 -4.6543 1.3009 2.5102 -4.1850 0.2525 0.6838 -4.5510 0.9089 2.1705 -2.7458 0.0396 0.8048 -4.0552 -0.5154 1.0808 -1.9032 -1.8389 -0.3189 2.8846 1.9634 -1.6764 -0.3135 1.3322 0.4269 0.2399 -1.0863 0.2007 2.2939 -0.4613 -1.1972 1.8460 1.7924 0.9326 -2.5932 -0.5107 0.3436 -0.5914 -2.1377 -0.8460 0.7202 0.9497 -0.5829 0.8975 -0.3448 -2.6737 -1.0868 0.6479 0.7326 4.7016 0.2421 0.1951 3.2929 0.5305
1.1222 5.7148 0.8609 -0.4385 1.1133 -3.8823 -4.4073 -1.1788 1.5198 -0.4691 1.6665 3.6261 -2.6179 -1.8943 2.6782 1.0954 4.9371 -1.2269 0.2627 0.0267 -3.5137 2.1074 -5.4227 -0.2662 1.1542 -5.1287 -1.1071 2.2962 -4.3406 0.4863 0.6305 -3.8482 -1.3653 2.5014 -3.3383 -0.6086 1.1428 -1.6699 -2.0058 0.1347 3.0340 1.9850 -2.1286 0.2577 1.6445 0.1674 0.1960 -0.9699 0.0133 2.3056 -0.4257 -0.7691 2.0017 2.0664 1.0891 -2.7508 -0.9097 -0.0556 -0.5907 -1.9817 -0.6987 0.7776 1.2925 -0.7250 0.9477 -0.1024 -2.6714 -0.8735 1.7820 0.9018 4.7199 -0.0403 0.3622 3.3377 0.4639
0.5328 5.4743 0.9469 0.6751 1.2917 -3.7975 -3.0239 -2.7061 0.7836 -1.9166 1.4488 3.0580 -3.1357 -0.7615 -0.4579 1.3987 4.6399 -0.8792 0.4817 -0.1828 -3.5808 2.1470 -4.2842 1.3593 2.4648 -3.0422 0.9745 0.8962 -4.3120 1.1474 2.1752 -2.4487 -0.2071 0.8716 -3.8595 -0.2429 0.7424 -2.0037 -1.9014 -0.6784 2.9256 1.7512 -1.5597 -0.5596 1.2956 -0.2790 0.1214 -1.2642 0.4717 2.0187 -0.3182 -0.8615 1.5461 2.0151 0.9555 -2.4303 -0.4065 0.6200 -0.5258 -2.0705 -1.2576 0.7421 0.7943 -0.0765 0.6194 -0.1164 -2.5899 -1.2728 0.4737 0.7525 4.4612 0.1417 0.1938 3.1000 0.5013
0.6518 5.5381 0.8989 0.4544 1.2542 -3.8586 -2.8391 -2.8304 1.2039 -1.9345 1.6025 3.0627 -3.1725 -0.9173 -0.2227 1.5064 4.5853 -0.9310 0.1967 -0.2433 -3.6130 2.4349 -4.2334 1.1419 2.6838 -2.9061 0.8769 1.0814 -4.2806 1.1226 2.1996 -2.6067 -0.5057 0.6897 -3.8837 -0.2659 0.4853 -1.9982 -1.9217 -0.6944 2.9579 1.7343 -1.4352 -0.5471 1.4277 -0.4328 0.1115 -1.2833 0.2994 2.0473 -0.4323 -0.8603 1.6188 2.0201 0.9814 -2.4358 -0.4856 0.5805 -0.4807 -2.0677 -1.2519 0.7816 0.8510 -0.1186 0.6117 -0.0302 -2.5072 -1.3593 0.7194 0.8271 4.4664 0.0922 0.1738 3.1472 0.4662
0.7429 5.5509 0.9133 0.2681 1.2729 -3.8570 -2.8420 -2.7702 1.3225 -1.7979 1.6384 3.1642 -3.1937 -0.8637 -0.0735 1.5251 4.5952 -0.9471 0.0077 -0.2280 -3.5986 2.4372 -4.0761 1.1928 2.7270 -3.8451 -0.0357 1.0898 -4.2144 1.1507 2.1635 -2.4801 -0.4863 0.7076 -3.8493 -0.2647 0.4150 -1.9730 -1.9171 -0.5967 2.9844 1.7888 -1.3885 -0.5116 1.5004 -0.4951 0.1446 -1.2453 0.2866 2.0744 -0.4267 -0.7681 1.6462 2.0760 0.9767 -2.4465 -0.5174 0.4887 -0.4562 -2.0689 -1.2192 0.8195 0.9237 -0.1278 0.6444 -0.0108 -2.5029 -1.3071 0.8350 0.8772 4.4807 0.0953 0.2190 3.1698 0.4863
0.5957 5.3986 0.8970 0.5610 1.2951 -3.8070 -2.9542 -2.7494 0.8591 -1.8977 1.4393 3.0787 -3.1345 -0.8096 -0.4166 1.4746 4.5027 -0.9157 0.4016 -0.1869 -3.5862 2.2798 -4.1425 1.3547 2.5282 -2.7427 1.0862 0.9936 -4.2630 1.1549 2.2072 -2.3071 -0.2584 0.8205 -3.8583 -0.2492 0.6684 -2.0269 -1.8905 -0.7170 2.9461 1.6724 -1.5436 -0.6123 1.3247 -0.4648 0.0746 -1.2936 0.4268 2.0101 -0.3495 -0.8699 1.5300 2.0319 0.9600 -2.4177 -0.4198 0.6037 -0.5052 -2.0744 -1.2609 0.7012 0.8265 -0.0670 0.6206 -0.0913 -2.5795 -1.3228 0.5168 0.7905 4.3644 0.1036 0.1776 3.0618 0.4456
0.5607 5.3735 0.8623 0.5142 1.2716 -3.8206 -2.8516 -2.8122 0.9168 -1.9219 1.4318 3.0643 -3.1136 -0.8645 -0.3839 1.5017 4.4375 -0.9108 0.3732 -0.2219 -3.5926 2.4379 -3.9624 1.4096 2.6228 -2.4898 1.1771 1.0187 -4.2528 1.1659 2.2938 -2.1425 -0.2213 0.7077 -3.8876 -0.2514 0.6052 -2.0751 -1.8779 -0.7462 2.9550 1.6023 -1.5471 -0.6420 1.3361 -0.5313 0.0441 -1.3299 0.4375 1.9830 -0.3779 -0.8851 1.5248 2.0247 0.9057 -2.4196 -0.4476 0.5722 -0.5332 -2.0844 -1.2768 0.6824 0.8329 -0.0941 0.6084 -0.1077 -2.5437 -1.3787 0.5415 0.7846 4.3208 0.0756 0.1752 3.0495 0.3969
1.2967 5.4202 0.0845 -1.4159 1.0006 -3.7498 -3.2492 -2.0825 2.3774 -1.1946 2.3755 3.4225 -1.4894 -1.8678 3.8234 1.0763 4.3479 -1.8212 -1.5408 -0.4587 -3.2566 3.1774 -4.0325 -0.3002 3.1709 -2.9311 -1.0352 2.1845 -4.7711 -0.6492 1.7827 -2.2244 -0.8837 0.9083 -3.9491 -0.6761 -0.3897 -2.1106 -1.7226 -0.1407 3.1960 1.6173 -0.9971 -0.3540 1.9786 -1.1116 0.0268 -0.8531 -0.1042 2.0101 -0.5696 -0.3271 1.8675 2.1442 1.0154 -2.7482 -1.4984 -0.4193 -0.6164 -2.0141 -1.1286 0.9534 1.3640 -0.3764 0.6479 0.0707 -1.8665 -1.2127 2.5874 0.8957 4.3498 -0.5957 0.2431 3.1637 0.1553
1.1709 5.4314 0.7326 -0.4089 1.1128 -3.8402 -2.8372 -2.6423 1.8233 -1.3813 1.7627 3.3861 -3.3393 -0.7422 0.4531 1.2861 4.5081 -1.3055 -0.6393 -0.3648 -3.4960 2.7240 -4.0237 0.8749 3.1363 -3.1237 -0.1099 1.8403 -4.7507 0.2289 1.9556 -2.2436 -0.4659 0.7264 -3.8661 -0.2173 0.0343 -2.0595 -1.8134 -0.3651 3.0393 1.8093 -1.3502 -0.4040 1.7784 -0.7667 0.1023 -1.1090 0.1735 2.0295 -0.4736 -0.5347 1.7184 2.1594 1.1790 -2.7691 -1.0866 0.1217 -0.5585 -2.0458 -1.1742 0.8743 1.1129 -0.2206 0.6065 0.0545 -2.5515 -1.1897 1.2698 0.9429 4.4073 -0.1187 0.2780 3.1453 0.3988
1.4106 5.3210 -0.1760 -2.4975 0.5189 -3.1417 -3.2936 -1.3569 3.6618 0.3084 2.0074 3.6412 -1.4183 -1.7702 2.4290 0.4690 4.3556 -1.9462 -2.3046 -0.9075 -2.4615 3.5615 -3.7898 -1.4030 2.7976 -3.5647 -2.3613 2.7019 -4.1420 -0.4539 1.8473 -2.3535 -2.1175 1.3354 -3.9369 -0.9531 -0.4207 -2.2626 -1.6202 0.6447 2.9908 1.6651 -1.5621 0.3929 2.6133 -1.0808 -0.3287 -0.3516 -0.2925 1.8800 -0.4697 -0.2368 2.1626 2.2444 1.0628 -2.5029 -1.2293 -0.8466 -0.7475 -1.6637 -0.4911 0.8165 1.6650 -0.9103 0.8222 0.3321 -1.9286 -0.9403 2.7411 0.7713 4.2627 -0.7594 0.3729 3.0731 0.1150
1.3146 5.3132 -0.3125 -2.4999 0.5142 -3.1363 -3.3229 -1.2574 3.6885 0.4599 2.0216 3.5738 -1.2665 -1.8648 2.8814 0.3624 4.3034 -2.0381 -2.3209 -0.9140 -2.4562 3.5324 -3.7485 -1.2330 3.1007 -2.8692 -2.1965 2.5613 -4.6160 -1.1385 1.8530 -2.1377 -1.6773 1.2723 -3.9300 -0.7959 -0.4937 -2.2946 -1.4716 0.6182 3.0363 1.5953 -1.4593 0.3356 2.6009 -1.2171 -0.2632 -0.3409 -0.4392 1.9012 -0.4708 -0.1690 2.1524 2.2123 0.9342 -2.7998 -1.6806 -0.8177 -0.8074 -1.6677 -0.4600 0.8110 1.6703 -0.6456 0.6886 0.3348 -1.8386 -0.9272 2.8569 0.6549 4.2646 -0.8518 0.2862 3.0878 0.0535
1.3920 5.2664 -0.2225 -2.5104 0.4423 -3.1836 -3.2768 -1.4489 3.6190 0.2269 2.0055 3.6118 -1.3794 -1.8200 2.4064 0.4465 4.2962 -1.9962 -2.2862 -0.9725 -2.5066 3.5696 -3.8437 -1.4718 3.2240 -2.4779 -1.6487 2.7217 -4.1913 -0.5087 1.8154 -2.4254 -2.1226 1.3589 -3.9780 -0.9788 -0.4239 -2.3174 -1.6034 0.5839 2.9725 1.6329 -1.5927 0.3488 2.5740 -1.1131 -0.3669 -0.3768 -0.3241 1.8395 -0.5039 -0.2983 2.1398 2.2070 1.0458 -2.4975 -1.1662 -0.8646 -0.7952 -1.6815 -0.5264 0.7864 1.6348 -0.9390 0.7816 0.3004 -1.9227 -1.0018 2.7076 0.7416 4.2187 -0.8018 0.3315 3.0391 0.0792
1.3983 5.4109 -0.2434 -2.5338 0.4132 -3.3310 -2.2170 -1.5369 4.5948 1.0110 2.0078 3.6152 -3.0068 -0.8575 2.6236 0.3699 4.4373 -1.9295 -2.3393 -0.8598 -2.3656 3.1212 -4.5923 -2.1752 3.0178 -3.3482 -2.7540 2.6732 -4.3713 -0.8885 1.5766 -2.8895 -2.8072 1.2509 -4.0064 -0.9923 -0.3963 -2.2218 -1.6471 0.8982 2.9974 1.6091 -1.3782 0.5428 2.9709 -1.1062 -0.4140 -0.1363 -0.3257 1.9031 -0.3502 0.1079 2.1684 2.3833 1.1142 -2.5754 -1.5497 -0.8807 -0.7101 -1.5962 -0.3544 0.8083 1.8695 -0.9598 0.8945 0.5142 -2.1596 -0.6461 3.1836 0.7147 4.3434 -0.7508 0.4038 3.1019 0.1528
1.2466 5.6257 -0.4148 -2.7485 0.2747 -3.0222 -1.6239 -1.3547 4.9862 0.8078 2.6529 3.7583 -2.6651 -1.0917 2.9363 0.0868 4.5192 -2.0037 -2.3792 -0.8951 -2.0573 2.8545 -5.0909 -2.8510 2.7564 -3.6935 -3.4699 2.7050 -4.9347 -1.4464 1.3483 -3.1233 -3.2147 1.3528 -4.2468 -1.1060 -0.3763 -2.3996 -1.5527 1.0021 3.2413 1.4927 -1.3924 0.8610 3.2524 -0.8327 -0.4902 0.1097 -0.3648 2.0441 -0.3083 0.1171 2.5692 2.4752 1.1584 -2.8342 -1.7910 -0.8265 -0.8260 -1.4363 -0.3041 1.0841 2.1203 -0.9091 0.9791 0.6644 -1.9402 -0.5988 3.6131 0.5578 4.4886 -0.8444 0.3692 3.2398 0.1098
1.2783 5.5332 -0.4276 -2.7764 0.2649 -3.0599 -1.6973 -1.4348 4.9077 0.9583 2.4467 3.6782 -2.7537 -1.0311 2.9022 0.1134 4.4657 -2.0093 -2.4164 -0.9231 -2.1034 3.3366 -4.4333 -2.3861 2.7419 -3.5649 -3.4014 2.3341 -5.0428 -1.6577 1.2833 -3.1727 -3.1071 1.5110 -3.9423 -0.9234 -0.4163 -2.3737 -1.5252 1.0443 3.1253 1.4656 -1.3417 0.7863 3.2037 -0.9669 -0.4848 0.0751 -0.3959 1.9867 -0.3165 0.1805 2.4339 2.4366 1.1388 -2.7271 -1.7729 -0.8957 -0.8171 -1.4528 -0.2931 0.9891 2.0482 -0.9511 0.9530 0.6386 -1.9781 -0.6224 3.5465 0.5809 4.4190 -0.8554 0.3813 3.1666 0.0963
1.5300 6.1190 0.3318 -3.0302 -0.1921 -3.2607 -3.0180 -0.4314 5.1784 0.3894 2.7548 4.0487 -2.6941 -1.2659 3.0389 0.3367 5.3529 -1.4688 -1.2824 -0.3556 -3.0581 2.5796 -6.2849 -2.4723 2.2332 -5.4126 -3.6247 2.8173 -5.4681 -1.2241 0.9821 -4.4422 -3.3366 2.4556 -3.9113 -1.4032 0.7211 -2.0169 -2.1973 0.8352 3.5207 1.8450 -1.9814 1.0604 2.9525 -0.3053 -0.2931 -0.2827 -0.1292 2.4685 -0.3085 -0.1497 2.7136 2.6143 0.9867 -3.6498 -1.9547 -0.6352 -1.0768 -1.6419 -0.5691 1.2217 2.1016 -0.7548 1.1804 0.4156 -2.5177 -0.3190 3.6422 0.7502 5.0671 -0.3233 0.4498 3.6606 0.3879
1.5050 6.1737 0.3112 -3.0472 -0.1977 -3.1962 -2.9351 -0.3622 5.2722 0.4404 2.8136 4.0543 -2.6790 -1.1970 3.1281 0.2693 5.3969 -1.4698 -1.3211 -0.3721 -2.9962 2.9272 -6.1201 -2.7947 1.6701 -5.9100 -3.5579 2.7418 -5.6013 -1.3449 1.1450 -4.3452 -3.5105 2.3588 -4.0365 -1.3505 0.7382 -2.0220 -2.1729 0.8949 3.5548 1.8253 -1.9670 1.1162 2.9985 -0.1976 -0.2764 -0.2511 -0.1418 2.5095 -0.2953 -0.1016 2.7601 2.6336 0.9580 -3.7211 -2.0530 -0.6740 -1.1447 -1.5744 -0.5381 1.2508 2.1327 -0.7347 1.1932 0.4403 -2.4915 -0.2669 3.7168 0.7217 5.1074 -0.3315 0.4582 3.6971 0.3859
1.3749 5.6580 -0.4217 -3.7257 -0.8232 -2.5210 -1.9860 -0.6771 5.5555 0.9633 2.6738 3.7290 -2.1957 -1.4106 3.3674 -0.0911 4.7622 -1.9041 -2.2034 -0.7615 -2.5110 3.0377 -5.0103 -3.0502 2.9602 -3.6251 -3.6122 2.9097 -4.8746 -1.6031 1.5206 -3.0630 -3.3784 1.5453 -4.2162 -1.2358 -0.3534 -2.4782 -1.6944 0.9874 3.2324 1.4332 -1.4455 0.8945 3.2514 -0.9848 -0.5174 0.0066 -0.4133 2.0762 -0.3565 0.1552 2.5519 2.4384 1.2389 -2.8033 -1.9363 -1.0307 -0.9854 -1.4840 -0.3220 1.0531 2.1217 -0.9312 0.9632 0.5956 -1.8481 -0.5057 3.9533 0.5128 4.5976 -0.8191 0.3249 3.2887 0.0756
1.5256 5.7041 -0.2350 -3.6427 -0.6256 -2.6656 -2.2369 -0.6517 5.4756 0.8222 2.6848 3.8461 -2.3439 -1.3638 3.2580 0.0748 4.8880 -1.7900 -1.9810 -0.6019 -2.7442 3.3845 -4.9390 -2.8320 2.4011 -4.6011 -3.7713 3.0026 -4.8403 -1.4405 1.4796 -3.3236 -3.4615 1.6053 -4.1705 -1.1659 -0.3439 -2.4834 -1.7614 0.9876 3.2627 1.5483 -1.5915 0.9535 3.2224 -1.0046 -0.4716 -0.0525 -0.3274 2.1441 -0.3473 0.0991 2.5837 2.5090 1.2586 -2.9202 -2.0681 -0.8714 -0.8873 -1.5983 -0.3880 1.0863 2.1420 -0.9114 1.0189 0.5746 -2.0415 -0.4613 3.8923 0.6448 4.6733 -0.6940 0.3985 3.3421 0.1593
0.0171 6.5615 -0.1313 -3.6661 -0.8255 -2.4454 -2.2026 -0.1461 5.9592 0.0921 3.5800 4.0373 -2.2940 -1.0796 3.8589 1.2276 5.4947 -1.6462 -1.8514 -0.7292 -2.5841 2.8246 -6.1177 -3.6541 1.5037 -5.8181 -4.2749 3.0072 -5.6181 -2.2651 0.4846 -4.8833 -3.4249 2.4354 -4.0943 -2.0177 0.0953 -2.6933 -1.8010 0.7307 3.8695 1.7480 -0.6136 0.7547 3.7258 -0.3877 -0.4017 -0.0166 -0.0538 2.4805 -0.3001 -0.2774 3.0763 2.5718 1.1373 -3.5870 -2.7457 -0.6539 -1.1579 -1.4789 -0.5904 1.4807 2.2187 -0.0716 1.0634 0.6623 -1.7923 -0.2123 4.3957 0.5252 5.1837 -0.6026 0.3739 3.8190 0.2110
-0.0102 6.5878 -0.1116 -3.6377 -0.8019 -2.4939 -2.1909 -0.0864 6.0264 0.1276 3.5719 4.0464 -2.3651 -1.0263 3.8965 1.2236 5.5407 -1.6253 -1.8280 -0.6952 -2.6228 2.5502 -6.4883 -3.4536 1.5595 -5.7314 -4.4132 3.2608 -5.4996 -2.5866 0.5214 -4.8059 -3.5887 2.2957 -4.3636 -1.8649 0.0146 -2.7934 -1.7150 0.7358 3.8779 1.7453 -0.5578 0.7401 3.7559 -0.4425 -0.4155 0.0147 -0.0406 2.4972 -0.3081 -0.2991 3.1107 2.5880 1.2087 -3.5657 -2.7620 -0.5917 -1.1266 -1.5240 -0.6688 1.5118 2.2223 0.0163 1.0735 0.6562 -1.7888 -0.1926 4.4591 0.5244 5.2497 -0.5701 0.3828 3.8310 0.2289
0.0447 6.6208 -0.2056 -3.4340 -0.6244 -3.2013 -2.2820 0.0643 6.2504 0.0979 3.5435 4.1128 -1.7264 -1.3424 4.4691 1.5355 5.4947 -1.4813 -1.6456 -0.6082 -2.9398 2.6024 -6.5514 -3.4841 1.7828 -5.7327 -4.4834 3.3788 -5.5544 -2.6433 0.6500 -4.7982 -3.6695 2.3567 -4.4405 -1.8637 -0.0042 -2.8251 -1.7023 0.7063 3.8362 1.8050 -1.8188 0.9927 3.5573 -0.6310 -0.4241 -0.0491 -0.1203 2.5145 -0.2702 -0.3377 3.1015 2.6719 1.2613 -3.6075 -2.7371 -0.5944 -1.0896 -1.5940 -0.5573 1.3988 2.3585 -0.4458 1.1276 0.6385 -1.8402 -0.1857 4.6809 0.6481 5.2649 -0.5181 0.3727 3.8250 0.2984
-0.1251 6.6278 -0.4331 -3.5902 -0.7634 -3.0483 -2.2613 0.2876 6.4216 -0.2817 3.9048 4.0877 -1.8343 -1.3429 4.6566 1.5201 5.4500 -1.5739 -1.7624 -0.7139 -2.8358 2.5175 -6.5953 -3.8375 1.4890 -5.8861 -4.6346 3.3874 -5.5244 -3.2427 0.4632 -4.9209 -3.6616 2.5046 -4.4534 -2.2321 0.0560 -2.8996 -1.5872 0.6239 3.9988 1.7695 -0.5475 0.7927 4.0635 -0.6406 -0.4696 0.0823 -0.0902 2.4805 -0.1905 -0.4782 3.2372 2.6676 1.1684 -3.6587 -2.8430 -0.6067 -1.1447 -1.4787 -0.7604 1.5621 2.4491 -0.1046 1.0700 0.8226 -1.5916 -0.1629 4.9277 0.5955 5.2729 -0.6357 0.3494 3.8514 0.2866
-0.2309 6.8172 -0.3934 -3.0856 -0.5324 -3.7434 -1.8224 0.3133 6.7528 -0.4424 3.9305 4.1936 -1.7690 -1.3138 4.9401 1.6721 5.7454 -1.3228 -1.3545 -0.4780 -3.1974 2.9346 -6.4754 -4.1580 1.5763 -6.0670 -4.7779 2.6759 -6.6751 -2.7333 1.0410 -4.5652 -4.2210 2.0827 -5.2075 -1.9216 0.5943 -2.6443 -1.8914 0.6420 4.0742 1.8674 -1.7981 1.0277 3.8592 -0.6602 -0.4068 -0.0161 -0.2011 2.6410 -0.1750 -0.4250 3.2902 2.7249 0.7514 -4.3434 -2.5840 -0.5136 -1.2660 -1.5672 -0.4741 1.4937 2.6119 -0.3821 1.1563 0.7774 -1.7289 -0.0699 5.1041 0.6003 5.5224 -0.4970 0.3174 4.0329 0.3680
0.1166 6.6451 -0.4151 -3.1976 -0.5110 -3.7676 -1.8652 0.1815 6.6798 -0.6069 3.8821 4.1374 -1.6411 -1.4326 4.8214 1.9288 5.3883 -1.3013 -1.4611 -0.5524 -3.1970 2.5821 -6.7005 -3.7495 1.5659 -6.0193 -4.5823 3.4875 -5.6060 -3.1653 0.5099 -4.9718 -3.6863 2.5695 -4.5222 -2.1722 0.0855 -2.8844 -1.6295 0.5968 3.9555 1.8769 -1.8497 0.9893 3.8630 -0.9596 -0.4044 -0.0316 -0.1715 2.5111 -0.1781 -0.6152 3.2786 2.6871 1.2247 -3.7263 -2.8164 -0.5438 -1.1004 -1.6204 -0.7664 1.5225 2.5411 -0.4930 1.0954 0.7915 -1.7110 -0.1934 5.0376 0.8242 5.2980 -0.4964 0.3908 3.8772 0.3730
1.5707 6.8146 0.1509 -3.2663 -0.9605 -3.7294 -1.8635 0.2925 6.7171 -0.4769 3.9290 4.2479 -1.7122 -1.3281 4.9553 0.2912 6.1630 -1.6438 -1.4595 -0.6871 -3.2393 3.0165 -6.6848 -4.0475 1.8239 -6.0889 -4.7645 2.6608 -6.8910 -2.6074 1.3890 -4.5249 -4.2288 2.0765 -5.3771 -1.8478 0.7774 -2.6192 -1.9384 -0.5923 4.4769 1.7276 -1.8751 0.9624 3.7732 -0.5548 -0.3473 -0.1281 0.2393 2.7148 -0.0686 -0.2857 3.2602 2.7770 0.9139 -4.3766 -2.5982 -0.5064 -1.3042 -1.6617 -0.6573 1.5642 2.5255 -0.5394 1.2472 0.6448 -1.7334 -0.0944 5.0691 0.6512 5.6619 -0.4440 0.1124 4.1976 0.3590
1.5263 6.8035 -0.0735 -3.4647 -1.1571 -3.4522 -2.0289 0.6739 6.8991 -0.3858 4.0705 4.2570 -2.0066 -1.1310 5.2801 -0.0107 6.1112 -1.7878 -1.6927 -0.8729 -3.0060 2.9574 -6.6251 -4.5087 1.6152 -6.1046 -5.0185 2.7527 -6.8800 -3.0478 1.2038 -4.5576 -4.4088 2.2335 -5.4043 -2.1773 0.8112 -2.6789 -2.0055 -0.5777 4.4831 1.6909 -0.5925 0.8290 4.2583 -0.4302 -0.4643 0.0382 0.2212 2.6483 -0.0687 -0.1484 3.3423 2.8192 0.9004 -4.4338 -2.7126 -0.6198 -1.4633 -1.5089 -0.7436 1.6383 2.6305 -0.5001 1.2117 0.7764 -1.6136 0.0688 5.3561 0.5266 5.6856 -0.5588 0.0668 4.2065 0.3291
-0.1267 7.2848 -0.2267 -3.6573 -1.5286 -3.2745 -1.7502 0.6495 6.9718 -0.8103 4.1625 4.1985 -1.8055 -1.1494 5.3535 1.3650 6.1344 -1.5617 -1.8060 -0.9977 -2.9719 2.8639 -6.8124 -4.5348 1.5934 -6.1616 -5.0779 2.6877 -7.0688 -3.0425 1.2713 -4.5956 -4.4594 2.1745 -5.5931 -2.1747 0.8152 -2.7460 -2.0491 0.3581 4.4888 1.9016 -0.4022 0.8197 4.2169 -0.3229 -0.4146 -0.0374 -0.1581 2.8181 -0.1666 -0.6352 3.4647 2.7475 0.9353 -4.4907 -2.7966 -0.5810 -1.4615 -1.6001 -0.8216 1.7132 2.6097 -0.4960 1.2734 0.7164 -1.3786 0.0588 5.4423 0.4841 5.8394 -0.5419 0.2032 4.3129 0.3577
-0.0242 7.2947 -0.1946 -3.4226 -1.3334 -3.8463 -1.4061 0.6091 7.1312 -0.9954 4.1864 4.1863 -1.3866 -1.2030 5.5967 1.6285 6.1049 -1.4188 -1.6671 -0.9065 -3.1960 3.0053 -6.8389 -4.4743 1.8026 -6.1420 -5.1002 2.6192 -7.1417 -3.0311 1.4539 -4.5881 -4.4453 2.0916 -5.6693 -2.1616 0.7926 -2.7676 -2.0315 0.2956 4.4587 1.9285 -1.6016 0.9411 4.1094 -0.5559 -0.4427 -0.0387 -0.1455 2.8029 -0.1538 -0.8055 3.4908 2.7407 0.9077 -4.5146 -2.8057 -0.6486 -1.4753 -1.6424 -0.7020 1.6747 2.6868 -0.7060 1.2805 0.7034 -1.3657 0.0284 5.5093 0.6139 5.8501 -0.4587 0.2221 4.3009 0.4065
-0.1929 7.2661 -0.2771 -3.5590 -1.4742 -3.6694 -1.6312 0.8536 7.2715 -0.8267 4.2440 4.2095 -1.6528 -1.0344 5.8129 1.4160 6.1192 -1.6205 -1.8108 -1.0237 -3.0246 2.9545 -6.7916 -4.7976 1.6787 -6.1278 -5.2865 2.6691 -7.1222 -3.3419 1.3277 -4.5953 -4.5677 2.1501 -5.6942 -2.3951 0.7878 -2.8156 -2.0663 0.3655 4.4811 1.8566 -0.5506 0.9082 4.4277 -0.5243 -0.5285 0.0856 -0.1198 2.7441 -0.1152 -0.6983 3.4907 2.7923 0.8992 -4.5361 -2.8954 -0.6788 -1.5644 -1.5497 -0.7751 1.6992 2.7766 -0.5638 1.2085 0.8381 -1.3709 0.1809 5.7212 0.4880 5.8355 -0.5543 0.2185 4.2768 0.3693
-0.1010 7.2861 -0.2389 -3.3474 -1.2920 -4.1039 -1.5192 0.9328 7.3841 -1.1289 4.2212 4.1566 -1.4510 -1.0109 6.0056 1.6294 6.1275 -1.5200 -2.3508 -1.5051 -2.7647 3.0744 -6.7779 -4.7803 1.8399 -6.0664 -5.3533 2.6995 -7.1234 -3.3404 1.4821 -4.5338 -4.6354 2.1429 -5.7099 -2.3887 0.7161 -2.8296 -2.0980 0.2639 4.4587 1.8730 -0.4051 0.9106 4.4540 -0.6742 -0.5490 0.0440 -0.1196 2.7487 -0.1350 -0.8863 3.4904 2.7970 0.9062 -4.5319 -3.0069 -0.6958 -1.5155 -1.7192 -1.0157 1.6597 2.7677 -0.6919 1.2012 0.8232 -1.1801 0.2247 5.8873 0.5975 5.8833 -0.5048 0.2151 4.3005 0.3971
-0.0096 7.2923 -0.2059 -3.0795 -1.1232 -4.5376 -1.1946 0.9207 7.5227 -1.3724 4.2736 4.1154 -1.1318 -1.0259 6.1593 1.7985 6.1324 -1.4133 -2.3895 -1.5592 -2.9103 3.1721 -6.8321 -4.7283 2.0466 -6.0269 -5.3633 2.6438 -7.1980 -3.3357 1.6558 -4.5129 -4.6116 2.0333 -5.7978 -2.3907 0.7081 -2.8524 -2.0915 0.1949 4.4600 1.9266 -1.4733 0.9789 4.4252 -0.8633 -0.5473 -0.0201 -0.1178 2.7421 -0.0839 -0.9390 3.4724 2.8022 0.9246 -4.5258 -3.0436 -0.7086 -1.4694 -1.8141 -0.8445 1.6188 2.8449 -0.8024 1.1881 0.8145 -1.1636 0.2217 5.9549 0.6844 5.8790 -0.4429 0.2278 4.2910 0.4271
-0.1132 7.2910 -0.2242 -3.0517 -1.1614 -4.5344 -1.2631 0.9930 7.5441 -1.3547 4.2511 4.1255 -0.9961 -1.0268 6.1830 1.7223 6.1508 -1.4351 -2.4389 -1.6813 -2.8311 3.1901 -6.8527 -4.7367 2.0626 -5.9913 -5.4269 2.6422 -7.2289 -3.3351 1.6950 -4.4806 -4.6535 2.0355 -5.8251 -2.3891 0.7299 -2.8435 -2.1131 0.3000 4.4291 1.9837 -1.7150 1.0220 4.4007 -0.8276 -0.5858 -0.0024 -0.1983 2.7411 -0.1204 -0.8356 3.4630 2.8267 0.9713 -4.5492 -3.1191 -0.7326 -1.4438 -1.8724 -0.6631 1.6393 2.8697 -0.7656 1.2050 0.8585 -1.2615 0.2485 6.0299 0.6389 5.9137 -0.4643 0.2292 4.3227 0.4363

$$$$
