CHEMBL1083660
 OpenBabel02201516223D

 28 31  0  0  1  0  0  0  0  0999 V2000
   -0.0178    1.4608    0.0101 C   0  0  0  0  0
    4.9655   -3.9073   -0.2558 O   0  0  0  0  0
   -1.0182   -1.8992    1.1237 C   0  0  0  0  0
    8.4042   -1.6657   -2.8413 C   0  0  0  0  0
    9.7923   -3.0934   -1.3384 C   0  0  0  0  0
    7.3243   -2.9273   -0.9717 C   0  0  0  0  0
   -1.2481   -0.7669    0.1141 C   0  0  0  0  0
    9.6908   -0.9719   -3.2938 C   0  0  0  0  0
   11.0274   -2.3467   -1.8466 C   0  0  0  0  0
    0.0563   -2.8378    0.5750 C   0  0  0  0  0
    6.1347   -1.9666   -0.9171 C   0  0  0  0  0
   12.0260   -1.2730   -3.7428 C   0  0  0  0  0
   15.1995   -4.1282   -3.8973 C   0  0  0  0  0
   14.9969   -3.3813   -2.7518 C   0  0  0  0  0
   14.3748   -3.9515   -4.9925 C   0  0  0  0  0
   13.9698   -2.4575   -2.7018 C   0  0  0  0  0
   13.3451   -3.0307   -4.9410 C   0  0  0  0  0
    3.5414   -0.6429   -0.6358 C   0  0  0  0  0
    2.3465    0.0049   -0.5126 C   0  0  0  0  0
    2.4710   -2.7119    0.0429 C   0  0  0  0  0
    8.5775   -2.1631   -1.4033 C   0  0  0  0  0
    0.0021   -0.0041    0.0020 N   0  0  0  0  0
   10.8094   -1.9204   -3.2341 N   0  0  0  0  0
   13.1457   -2.2801   -3.7974 C   0  0  0  0  0
    4.9003   -2.7192   -0.4920 C   0  0  0  0  0
    1.2745   -2.0563    0.1575 C   0  0  0  0  0
    3.6192   -2.0149   -0.3636 C   0  0  0  0  0
    1.2053   -0.6933   -0.1177 C   0  0  0  0  0
  1 22  1  0  0  0
  2 25  2  0  0  0
  3  7  1  0  0  0
  3 10  1  0  0  0
  4  8  1  0  0  0
  4 21  1  0  0  0
  5  9  1  0  0  0
  5 21  1  0  0  0
  6 11  1  0  0  0
  6 21  1  0  0  0
  7 22  1  0  0  0
  8 23  1  0  0  0
  9 23  1  0  0  0
 10 26  1  0  0  0
 11 25  1  0  0  0
 12 23  1  0  0  0
 12 24  1  0  0  0
 13 14  1  0  0  0
 13 15  2  0  0  0
 14 16  2  0  0  0
 15 17  1  0  0  0
 16 24  1  0  0  0
 17 24  2  0  0  0
 18 19  1  0  0  0
 18 27  2  0  0  0
 19 28  2  0  0  0
 20 26  2  0  0  0
 20 27  1  0  0  0
 22 28  1  0  0  0
 25 27  1  0  0  0
 26 28  1  0  0  0
M  CHG  1  19   1
M  END

>  <MOLID> (CHEMBL1083660)
CHEMBL1083660

>  <SMILES_CANONICAL> (CHEMBL1083660)
O=C(c1c[c+]c2c(c1)CCCN2C)CC[C@@H]1CCN(CC1)Cc1ccccc1	CHEMBL1083660

>  <FINGERPRINT> (CHEMBL1083660)
0000000000000001010000000000001000000001000000000000101000000000000000100001000000000001000000101100000010000001000001100000000000100000000000000000000000000001000000000000000000100000010000000000000000000000000000000000000000100010000000000001000000000000000000000100000000001000000000000000000000001000000010101101000000001000001100000000000000000100010100000000000110010000000000000000010000000000100010000000101000000000001000001000000000000000000000000000001000000100010000000000100000001100000000000000100000000000000001001000000000000000000000100000000000000000000000000000100000000000001000000000100000000000000000000000001000000001010000000001000000000001000000000001100000100010100000100001000000100001000000000000000000000000000000010101000000000000000101000000000000000000000000000000000011000001000000000000000000000000000000000000000000000000000000001001000010000000000100001000000010000000000000001000000100000010000000000000011000000000000010101010000000000110000000001000000000100000000000000000011000000000

>  <MACCS166> (CHEMBL1083660)
000000000000000000000000010000000000000000001000110000000000000000000000001100000000110000001000011100001001001000110101110010011001001111011101111110011111011110111000

>  <OB_MW> (CHEMBL1083660)
375.244

>  <OB_logP> (CHEMBL1083660)
4.7472

>  <OB_PSA> (CHEMBL1083660)
23.55

>  <OB_MR> (CHEMBL1083660)
123.106

>  <OB_ATOMIC_CHARGES> (CHEMBL1083660)
0.1159953755 -0.2911969048 0.0264051685 0.0173925532 0.0173925532 0.0082076346 0.0949278781 0.072376243 0.072376243 0.033659359 0.069301852 0.0991462935 -1.89196e-05 -0.0002787537 -0.0002787537 -0.0029175369 -0.0029175369 0.2590086349 0.3816301345 0.0082076325 0.0032083926 -0.2678949936 -0.2689649855 -0.0061415976 0.1771134273 0.0401953884 0.0859446549 0.2581205636

>  <MCT_HBD> (CHEMBL1083660)
0

>  <MCT_HBA> (CHEMBL1083660)
3

>  <ENSEMBLE_TOTAL> (CHEMBL1083660)
50

>  <ENSEMBLE_RMSD> (CHEMBL1083660)
0.112 0.112 0.135 0.154 0.154 0.155 0.155 0.156 0.156 0.156 0.156 0.156 0.157 0.180 0.182 0.192 1.091 1.094 1.101 1.107 1.110 1.113 1.114 1.126 1.130 1.249 1.336 1.802 2.059 2.165 2.189 2.208 2.281 2.710 2.764 2.773 2.906 3.520 3.529 3.620 3.735 3.827 3.868 3.915 4.195 4.259 4.384 4.437 4.481 4.537

>  <ENSEMBLE_COORDS> (CHEMBL1083660)
-6.8181 3.3804 1.6969 -1.8332 -1.8240 1.3259 -7.8082 0.2195 2.7014 1.5848 0.3316 -1.3094 2.9187 -1.0843 0.0408 0.5002 -0.8894 0.4843 -8.0607 1.2469 1.6486 2.8903 0.9833 -1.7178 4.1765 -0.4050 -0.4054 -6.7541 -0.7598 2.1220 -0.6660 0.0965 0.6487 5.2262 0.6704 -2.1398 8.3763 -2.0537 -2.3952 8.1634 -1.3528 -1.2677 7.5763 -1.8499 -3.4172 7.1370 -0.4599 -1.1875 6.5515 -0.9884 -3.3034 -3.2479 1.3038 1.0492 -4.4793 1.9509 1.0739 -4.3354 -0.6727 1.6118 1.7453 -0.1422 0.0521 -6.9051 1.9644 1.2061 3.9842 0.0280 -1.6999 6.3404 -0.3084 -2.1981 -1.9032 -0.6624 1.0965 -5.5484 -0.0235 1.6851 -3.1737 0.0235 1.2489 -5.6379 1.2770 1.3493
-6.8188 3.3737 1.7030 -1.8358 -1.8265 1.3155 -7.8056 0.2252 2.7061 1.5846 0.3344 -1.3120 2.9165 -1.0974 0.0439 0.4972 -0.8920 0.4763 -8.0618 1.2488 1.6433 2.8891 0.9859 -1.7226 4.1759 -0.4108 -0.4016 -6.7478 -0.7601 2.1409 -0.6682 0.0932 0.6434 5.2250 0.6718 -2.1431 8.3806 -2.0494 -2.3838 8.1675 -1.3440 -1.2551 7.5751 -1.8558 -3.4174 7.1395 -0.4580 -1.1783 6.5475 -0.9860 -3.3139 -3.2475 1.3051 1.0485 -4.4769 1.9538 1.0799 -4.3358 -0.6738 1.6095 1.7460 -0.1438 0.0540 -6.9050 1.9704 1.1985 3.9829 0.0238 -1.7048 6.3391 -0.3026 -2.2035 -1.9060 -0.6644 1.0886 -5.5465 -0.0246 1.6904 -3.1748 0.0226 1.2447 -5.6362 1.2805 1.3494
-6.8335 3.3495 1.6643 -1.8261 -1.8150 1.3317 -7.7916 0.2418 2.7391 1.5924 0.3648 -1.2841 2.8718 -1.1855 -0.0905 0.4658 -0.9360 0.4020 -8.0374 1.3146 1.6974 2.9020 1.0031 -1.6832 4.1562 -0.4462 -0.4623 -6.7239 -0.7553 2.2132 -0.7062 0.0558 0.5474 5.2256 0.6659 -2.1412 8.4072 -2.0207 -2.3125 8.1750 -1.3298 -1.2184 7.6046 -1.8273 -3.3433 7.1409 -0.4263 -1.1748 6.5594 -0.9640 -3.2863 -3.2645 1.2902 1.0019 -4.4863 1.9394 1.0573 -4.3291 -0.6651 1.6282 1.7275 -0.1937 0.0188 -6.8894 1.9816 1.2256 3.9759 0.0165 -1.7258 6.3395 -0.2876 -2.2000 -1.9161 -0.6702 1.0626 -5.5332 -0.0115 1.7297 -3.1821 0.0181 1.2293 -5.6241 1.2930 1.3739
-6.7974 3.3174 1.7725 -1.8212 -1.7986 1.3372 -7.7797 0.2891 2.7489 1.5937 0.3662 -1.2854 2.8744 -1.1350 -0.0658 0.4754 -0.9061 0.4042 -8.0561 1.2301 1.6142 2.9025 0.9863 -1.6854 4.1370 -0.4931 -0.4966 -6.7029 -0.7281 2.2549 -0.7080 0.0770 0.5181 5.2292 0.6571 -2.1149 8.3953 -2.0162 -2.3341 8.1709 -1.3122 -1.2092 7.5773 -1.8195 -3.3749 7.1374 -0.4463 -1.1426 6.5498 -0.9760 -3.2763 -3.2515 1.2882 1.0236 -4.4816 1.9398 1.0649 -4.3304 -0.6662 1.6182 1.7347 -0.1589 0.0212 -6.8953 1.9762 1.1718 3.9702 -0.0063 -1.7406 6.3402 -0.3001 -2.1735 -1.9175 -0.6552 1.0613 -5.5353 -0.0130 1.7186 -3.1801 0.0262 1.2339 -5.6311 1.2771 1.3358
-6.7973 3.3181 1.7709 -1.8200 -1.7984 1.3412 -7.7797 0.2886 2.7489 1.5953 0.3702 -1.2817 2.8754 -1.1286 -0.0682 0.4744 -0.9081 0.4021 -8.0578 1.2278 1.6090 2.9014 0.9796 -1.6884 4.1363 -0.4899 -0.5030 -6.7037 -0.7250 2.2527 -0.7084 0.0751 0.5172 5.2278 0.6544 -2.1190 8.3969 -2.0143 -2.3311 8.1721 -1.3100 -1.2046 7.5766 -1.8172 -3.3779 7.1387 -0.4488 -1.1361 6.5512 -0.9753 -3.2730 -3.2499 1.2880 1.0307 -4.4799 1.9416 1.0702 -4.3326 -0.6672 1.6127 1.7332 -0.1630 0.0181 -6.8940 1.9776 1.1764 3.9658 -0.0116 -1.7523 6.3414 -0.2991 -2.1696 -1.9176 -0.6560 1.0614 -5.5350 -0.0128 1.7202 -3.1803 0.0261 1.2335 -5.6300 1.2781 1.3396
-6.7964 3.3145 1.7783 -1.8196 -1.7942 1.3394 -7.7787 0.2917 2.7496 1.5888 0.3621 -1.2990 2.8709 -1.1527 -0.0641 0.4711 -0.9103 0.3909 -8.0586 1.2267 1.6051 2.9011 0.9897 -1.6914 4.1391 -0.4988 -0.4812 -6.6976 -0.7246 2.2704 -0.7083 0.0790 0.5157 5.2275 0.6573 -2.1201 8.3975 -2.0122 -2.3280 8.1736 -1.3072 -1.2003 7.5754 -1.8237 -3.3772 7.1392 -0.4441 -1.1347 6.5487 -0.9692 -3.2817 -3.2495 1.2913 1.0273 -4.4797 1.9435 1.0674 -4.3309 -0.6664 1.6148 1.7332 -0.1669 0.0197 -6.8953 1.9780 1.1684 3.9703 -0.0045 -1.7421 6.3403 -0.2951 -2.1752 -1.9183 -0.6558 1.0579 -5.5333 -0.0138 1.7232 -3.1808 0.0262 1.2299 -5.6296 1.2793 1.3371
-6.7972 3.3127 1.7778 -1.8190 -1.7945 1.3397 -7.7773 0.2960 2.7517 1.5891 0.3658 -1.2993 2.8714 -1.1553 -0.0604 0.4693 -0.9123 0.3865 -8.0581 1.2269 1.6066 2.9022 0.9930 -1.6883 4.1404 -0.4981 -0.4758 -6.6961 -0.7248 2.2748 -0.7115 0.0763 0.5027 5.2270 0.6596 -2.1212 8.3975 -2.0135 -2.3272 8.1745 -1.3063 -1.1977 7.5739 -1.8252 -3.3797 7.1402 -0.4438 -1.1306 6.5473 -0.9684 -3.2849 -3.2508 1.2902 1.0216 -4.4798 1.9436 1.0670 -4.3310 -0.6665 1.6141 1.7325 -0.1711 0.0205 -6.8948 1.9791 1.1688 3.9708 -0.0034 -1.7415 6.3400 -0.2948 -2.1765 -1.9174 -0.6549 1.0594 -5.5331 -0.0156 1.7244 -3.1803 0.0260 1.2308 -5.6295 1.2793 1.3367
-6.7965 3.3157 1.7766 -1.8193 -1.7943 1.3405 -7.7792 0.2910 2.7486 1.5898 0.3618 -1.2959 2.8711 -1.1489 -0.0669 0.4716 -0.9098 0.3928 -8.0583 1.2264 1.6063 2.9019 0.9897 -1.6888 4.1380 -0.4988 -0.4855 -6.6991 -0.7252 2.2662 -0.7080 0.0790 0.5172 5.2279 0.6563 -2.1189 8.3976 -2.0118 -2.3277 8.1727 -1.3087 -1.2035 7.5755 -1.8222 -3.3776 7.1386 -0.4455 -1.1367 6.5491 -0.9700 -3.2803 -3.2495 1.2906 1.0282 -4.4799 1.9426 1.0677 -4.3304 -0.6658 1.6163 1.7339 -0.1632 0.0201 -6.8956 1.9769 1.1687 3.9694 -0.0063 -1.7437 6.3407 -0.2961 -2.1732 -1.9177 -0.6552 1.0598 -5.5339 -0.0132 1.7216 -3.1803 0.0270 1.2317 -5.6302 1.2783 1.3365
-6.7965 3.3169 1.7752 -1.8198 -1.7949 1.3399 -7.7790 0.2912 2.7499 1.5907 0.3613 -1.2927 2.8713 -1.1448 -0.0701 0.4722 -0.9095 0.3948 -8.0578 1.2265 1.6078 2.9028 0.9898 -1.6855 4.1372 -0.4984 -0.4895 -6.7011 -0.7266 2.2605 -0.7078 0.0788 0.5183 5.2281 0.6551 -2.1184 8.3982 -2.0110 -2.3264 8.1717 -1.3104 -1.2069 7.5752 -1.8205 -3.3790 7.1379 -0.4469 -1.1394 6.5496 -0.9713 -3.2788 -3.2498 1.2896 1.0282 -4.4802 1.9416 1.0680 -4.3300 -0.6655 1.6183 1.7364 -0.1558 0.0256 -6.8957 1.9758 1.1696 3.9677 -0.0103 -1.7477 6.3415 -0.2974 -2.1702 -1.9171 -0.6552 1.0615 -5.5349 -0.0125 1.7188 -3.1796 0.0281 1.2339 -5.6313 1.2764 1.3345
-6.8034 3.2982 1.7710 -1.8183 -1.7901 1.3371 -7.7754 0.2998 2.7543 1.5848 0.3683 -1.3117 2.8697 -1.1785 -0.0465 0.4667 -0.9146 0.3842 -8.0508 1.2436 1.6204 2.8945 0.9916 -1.7109 4.1401 -0.5117 -0.4666 -6.6932 -0.7278 2.2828 -0.7132 0.0767 0.4955 5.2268 0.6751 -2.1206 8.3960 -2.0175 -2.3274 8.1762 -1.3040 -1.1912 7.5771 -1.8270 -3.3691 7.1343 -0.4466 -1.1532 6.5548 -0.9581 -3.2708 -3.2498 1.2929 1.0211 -4.4791 1.9477 1.0649 -4.3316 -0.6712 1.6089 1.7320 -0.1853 0.0260 -6.8943 1.9817 1.1665 3.9724 0.0015 -1.7387 6.3424 -0.2794 -2.1733 -1.9198 -0.6558 1.0528 -5.5312 -0.0193 1.7302 -3.1817 0.0246 1.2237 -5.6257 1.2855 1.3407
-6.7963 3.3094 1.7849 -1.8186 -1.7943 1.3390 -7.7764 0.2975 2.7528 1.5861 0.3652 -1.3093 2.8711 -1.1645 -0.0529 0.4679 -0.9131 0.3834 -8.0599 1.2255 1.5993 2.9014 0.9959 -1.6916 4.1424 -0.5004 -0.4661 -6.6928 -0.7234 2.2846 -0.7113 0.0777 0.5017 5.2257 0.6619 -2.1246 8.3977 -2.0142 -2.3251 8.1763 -1.3044 -1.1906 7.5723 -1.8292 -3.3818 7.1412 -0.4386 -1.1278 6.5459 -0.9693 -3.2883 -3.2483 1.2939 1.0271 -4.4790 1.9461 1.0670 -4.3320 -0.6687 1.6104 1.7317 -0.1776 0.0189 -6.8949 1.9801 1.1657 3.9721 0.0005 -1.7395 6.3389 -0.2915 -2.1809 -1.9192 -0.6558 1.0536 -5.5317 -0.0162 1.7281 -3.1809 0.0269 1.2274 -5.6293 1.2803 1.3346
-6.8215 3.3385 1.6960 -1.8231 -1.8051 1.3427 -7.7770 0.2753 2.7655 1.5952 0.3680 -1.2848 2.8614 -1.2167 -0.0996 0.4518 -0.9458 0.3630 -8.0295 1.2965 1.7107 2.9122 0.9935 -1.6586 4.1316 -0.5239 -0.5160 -6.7112 -0.7346 2.2459 -0.7232 0.0493 0.4899 5.2258 0.6770 -2.1324 8.4104 -1.9928 -2.3059 8.1801 -1.2810 -1.2100 7.6055 -1.8200 -3.3279 7.1466 -0.4087 -1.1411 6.5621 -0.9772 -3.2617 -3.2693 1.2913 0.9768 -4.4856 1.9490 1.0477 -4.3282 -0.6651 1.6261 1.7316 -0.2081 0.0404 -6.8869 1.9846 1.2082 3.9658 0.0074 -1.7515 6.3376 -0.2811 -2.1912 -1.9244 -0.6673 1.0453 -5.5282 -0.0103 1.7434 -3.1860 0.0179 1.2142 -5.6235 1.2893 1.3648
-6.8172 3.3392 1.7100 -1.8246 -1.8065 1.3376 -7.7724 0.2824 2.7769 1.5955 0.3733 -1.2856 2.8629 -1.2189 -0.0915 0.4499 -0.9481 0.3585 -8.0370 1.2839 1.6856 2.9125 0.9984 -1.6585 4.1345 -0.5269 -0.5032 -6.7077 -0.7298 2.2575 -0.7218 0.0528 0.4919 5.2236 0.6747 -2.1377 8.4100 -1.9940 -2.3058 8.1827 -1.2755 -1.2012 7.6004 -1.8268 -3.3369 7.1459 -0.4076 -1.1441 6.5601 -0.9740 -3.2669 -3.2674 1.2946 0.9800 -4.4841 1.9507 1.0520 -4.3260 -0.6633 1.6326 1.7268 -0.2174 0.0248 -6.8900 1.9805 1.1982 3.9657 0.0068 -1.7520 6.3413 -0.2780 -2.1809 -1.9254 -0.6681 1.0434 -5.5284 -0.0109 1.7421 -3.1858 0.0191 1.2135 -5.6240 1.2895 1.3599
-6.8291 3.3218 1.6775 -1.8170 -1.7931 1.3533 -7.7669 0.2820 2.7927 1.6005 0.3843 -1.2686 2.8341 -1.2528 -0.1774 0.4426 -0.9597 0.3426 -8.0171 1.3319 1.7231 2.9203 1.0036 -1.6414 4.1181 -0.5617 -0.5487 -6.7016 -0.7249 2.2716 -0.7330 0.0443 0.4632 5.2229 0.6691 -2.1383 8.4263 -1.9722 -2.2636 8.1815 -1.2780 -1.1922 7.6224 -1.7823 -3.2896 7.1410 -0.4176 -1.1548 6.5697 -0.9514 -3.2463 -3.2763 1.2853 0.9595 -4.4902 1.9391 1.0459 -4.3216 -0.6602 1.6447 1.7207 -0.2457 0.0173 -6.8872 1.9794 1.2077 3.9581 0.0015 -1.7748 6.3407 -0.2829 -2.1819 -1.9267 -0.6688 1.0424 -5.5234 -0.0022 1.7565 -3.1883 0.0169 1.2119 -5.6205 1.2942 1.3678
-6.8348 3.3177 1.6638 -1.8171 -1.7939 1.3535 -7.7690 0.2767 2.7878 1.6020 0.3824 -1.2642 2.8293 -1.2587 -0.1921 0.4428 -0.9586 0.3421 -8.0128 1.3441 1.7355 2.9216 1.0039 -1.6370 4.1170 -0.5595 -0.5542 -6.6996 -0.7236 2.2783 -0.7335 0.0429 0.4624 5.2253 0.6710 -2.1318 8.4282 -1.9711 -2.2578 8.1808 -1.2801 -1.1954 7.6267 -1.7730 -3.2845 7.1399 -0.4247 -1.1585 6.5688 -0.9537 -3.2482 -3.2781 1.2848 0.9550 -4.4924 1.9364 1.0418 -4.3217 -0.6613 1.6447 1.7220 -0.2439 0.0217 -6.8862 1.9793 1.2119 3.9593 0.0035 -1.7717 6.3393 -0.2829 -2.1857 -1.9267 -0.6690 1.0421 -5.5233 -0.0008 1.7578 -3.1885 0.0160 1.2115 -5.6194 1.2957 1.3711
-6.8593 3.3018 1.5992 -1.8149 -1.7920 1.3614 -7.7851 0.2469 2.7477 1.6012 0.3735 -1.2644 2.8092 -1.2882 -0.2505 0.4419 -0.9565 0.3364 -7.9923 1.3846 1.7981 2.9301 1.0139 -1.6140 4.1155 -0.5531 -0.5655 -6.6908 -0.7194 2.3104 -0.7377 0.0315 0.4525 5.2426 0.6928 -2.0835 8.4276 -1.9813 -2.2548 8.1769 -1.2975 -1.2074 7.6561 -1.7221 -3.2470 7.1455 -0.4253 -1.1380 6.5472 -0.9892 -3.2901 -3.2833 1.2823 0.9388 -4.4996 1.9262 1.0241 -4.3213 -0.6631 1.6469 1.7296 -0.2334 0.0474 -6.8802 1.9858 1.2324 3.9539 -0.0032 -1.7835 6.3353 -0.2740 -2.2026 -1.9275 -0.6700 1.0378 -5.5182 0.0084 1.7750 -3.1894 0.0122 1.2075 -5.6131 1.3081 1.3857
-7.1676 3.0068 0.6752 -1.8018 -1.7819 1.4406 -7.8474 0.1604 2.5939 1.9000 0.7348 -0.4178 2.6333 -1.4863 -0.7749 0.3567 -1.0833 0.1037 -7.7272 1.6597 2.6101 3.0253 1.1503 -1.3360 3.6930 -1.0000 -1.7672 -6.4654 -0.4230 2.9677 -0.8946 -0.1824 0.0246 5.2267 0.6918 -2.1368 8.5362 -1.8645 -1.9681 7.6042 -1.9986 -2.8772 8.4008 -0.9145 -1.1235 6.5256 -1.1676 -2.9394 7.3145 -0.0787 -1.1819 -3.4609 1.0900 0.4315 -4.6270 1.7969 0.6359 -4.2470 -0.5711 1.8761 1.4207 -0.5769 -0.8410 -6.6964 2.2075 1.8250 4.1302 0.2087 -1.2866 6.3833 -0.2465 -2.0713 -1.9784 -0.7591 0.8910 -5.4110 0.1350 2.0871 -3.2438 -0.0563 1.0568 -5.5820 1.3488 1.5025
-7.1998 2.8840 0.6267 -1.7912 -1.7661 1.4324 -7.8571 0.1832 2.5355 1.9053 0.7414 -0.4075 2.6380 -1.4878 -0.7268 0.3846 -1.0260 0.1734 -7.6996 1.6801 2.6424 3.0305 1.1411 -1.3245 3.7328 -1.0063 -1.6389 -6.4867 -0.4700 2.8849 -0.8622 -0.1117 0.0924 5.2320 0.6860 -2.1140 8.5018 -1.8866 -2.0450 7.5536 -2.0178 -2.9837 8.3723 -0.9154 -1.1453 6.4896 -1.1829 -3.0049 7.2994 -0.0974 -1.1701 -3.4678 1.0578 0.4105 -4.6390 1.7677 0.6122 -4.2334 -0.5541 1.8947 1.4331 -0.5668 -0.8086 -6.6681 2.2445 1.8248 4.1568 0.2330 -1.2107 6.3743 -0.2376 -2.0879 -1.9713 -0.7215 0.9126 -5.4130 0.1251 2.0692 -3.2390 -0.0433 1.0620 -5.5759 1.3475 1.4940
-7.2056 2.8824 0.6196 -1.7881 -1.7604 1.4397 -7.8503 0.1834 2.5612 1.9088 0.7377 -0.3935 2.6336 -1.4880 -0.7478 0.3765 -1.0427 0.1487 -7.6993 1.6885 2.6497 3.0353 1.1604 -1.3085 3.7300 -0.9974 -1.6536 -6.4759 -0.4577 2.9143 -0.8724 -0.1286 0.0683 5.2352 0.6927 -2.1087 8.5037 -1.8928 -2.0380 7.5553 -2.0338 -2.9763 8.3776 -0.9102 -1.1375 6.4922 -1.1924 -2.9983 7.3026 -0.0838 -1.1703 -3.4766 1.0439 0.3889 -4.6442 1.7604 0.5989 -4.2341 -0.5534 1.8958 1.4302 -0.5641 -0.8167 -6.6701 2.2485 1.8240 4.1584 0.2411 -1.2102 6.3793 -0.2360 -2.0800 -1.9716 -0.7283 0.9041 -5.4088 0.1302 2.0799 -3.2439 -0.0493 1.0517 -5.5780 1.3497 1.4945
-7.2155 2.8051 0.6044 -1.7862 -1.7515 1.4277 -7.8489 0.2114 2.5457 1.9091 0.7559 -0.3940 2.6128 -1.4865 -0.7723 0.3782 -1.0203 0.1339 -7.6688 1.6986 2.7006 3.0419 1.1688 -1.2937 3.7154 -1.0180 -1.6685 -6.4844 -0.4787 2.8746 -0.8627 -0.1016 0.0717 5.2215 0.6693 -2.1354 8.5083 -1.8842 -2.0090 7.5550 -2.0456 -2.9505 8.3700 -0.8836 -1.1237 6.4914 -1.2098 -2.9718 7.2930 -0.0764 -1.1787 -3.4762 1.0235 0.3796 -4.6438 1.7516 0.5983 -4.2209 -0.5393 1.9220 1.4297 -0.5465 -0.8304 -6.6582 2.2632 1.8339 4.1545 0.2194 -1.2237 6.3722 -0.2446 -2.0885 -1.9726 -0.7183 0.9036 -5.4055 0.1303 2.0857 -3.2412 -0.0464 1.0549 -5.5680 1.3541 1.5036
-7.2137 2.8173 0.5983 -1.7896 -1.7595 1.4224 -7.8486 0.2110 2.5493 1.9079 0.7451 -0.3962 2.6159 -1.4618 -0.7814 0.3772 -1.0216 0.1254 -7.6650 1.6940 2.7201 3.0379 1.1551 -1.3039 3.7176 -1.0011 -1.6725 -6.4849 -0.4748 2.8737 -0.8655 -0.1059 0.0659 5.2275 0.6616 -2.1195 8.5096 -1.8805 -2.0096 7.5546 -2.0417 -2.9538 8.3728 -0.8791 -1.1151 6.4863 -1.2184 -2.9836 7.2969 -0.0788 -1.1604 -3.4760 1.0234 0.3826 -4.6425 1.7510 0.6050 -4.2255 -0.5416 1.9125 1.4286 -0.5334 -0.8401 -6.6579 2.2605 1.8395 4.1557 0.2170 -1.2180 6.3739 -0.2523 -2.0812 -1.9750 -0.7230 0.8959 -5.4061 0.1344 2.0843 -3.2444 -0.0501 1.0491 -5.5676 1.3532 1.5112
-7.2177 2.8063 0.5936 -1.7877 -1.7574 1.4259 -7.8484 0.2117 2.5478 1.9107 0.7530 -0.3906 2.6134 -1.4760 -0.7785 0.3792 -1.0190 0.1322 -7.6623 1.6985 2.7255 3.0384 1.1609 -1.3038 3.7138 -1.0120 -1.6783 -6.4876 -0.4805 2.8667 -0.8643 -0.1040 0.0675 5.2266 0.6662 -2.1214 8.5087 -1.8833 -2.0098 7.5518 -2.0461 -2.9595 8.3736 -0.8794 -1.1105 6.4840 -1.2185 -2.9895 7.2980 -0.0739 -1.1572 -3.4778 1.0220 0.3756 -4.6430 1.7523 0.6011 -4.2233 -0.5396 1.9179 1.4310 -0.5381 -0.8320 -6.6569 2.2640 1.8377 4.1549 0.2186 -1.2228 6.3740 -0.2462 -2.0824 -1.9732 -0.7193 0.9006 -5.4062 0.1323 2.0835 -3.2428 -0.0471 1.0515 -5.5670 1.3548 1.5092
-7.2184 2.8042 0.5929 -1.7870 -1.7563 1.4274 -7.8483 0.2117 2.5476 1.9110 0.7546 -0.3903 2.6129 -1.4793 -0.7781 0.3797 -1.0187 0.1340 -7.6621 1.6990 2.7256 3.0390 1.1626 -1.3026 3.7128 -1.0144 -1.6796 -6.4882 -0.4818 2.8651 -0.8640 -0.1037 0.0680 5.2261 0.6672 -2.1227 8.5086 -1.8838 -2.0096 7.5514 -2.0468 -2.9602 8.3737 -0.8799 -1.1099 6.4836 -1.2189 -2.9905 7.2983 -0.0727 -1.1565 -3.4777 1.0224 0.3755 -4.6430 1.7526 0.6003 -4.2229 -0.5394 1.9186 1.4312 -0.5391 -0.8309 -6.6567 2.2649 1.8371 4.1547 0.2189 -1.2238 6.3738 -0.2448 -2.0833 -1.9727 -0.7186 0.9018 -5.4063 0.1320 2.0831 -3.2424 -0.0468 1.0525 -5.5670 1.3550 1.5085
-7.1919 2.9455 0.6313 -1.7976 -1.7824 1.4288 -7.8320 0.1907 2.6349 1.9192 0.7218 -0.3582 2.5799 -1.4756 -0.9260 0.3388 -1.0784 0.0249 -7.6937 1.6744 2.6919 3.0515 1.1701 -1.2592 3.6883 -0.9728 -1.7961 -6.4429 -0.3927 3.0059 -0.9141 -0.1929 -0.0563 5.2400 0.6853 -2.1007 8.5378 -1.8649 -1.9357 7.5949 -2.0193 -2.8830 8.3992 -0.8860 -1.0801 6.5207 -1.1795 -2.9400 7.3152 -0.0994 -1.1324 -3.4891 1.0214 0.3648 -4.6418 1.7610 0.6123 -4.2321 -0.5518 1.9058 1.4149 -0.5286 -0.8863 -6.6798 2.2253 1.8491 4.1387 0.2099 -1.2607 6.3914 -0.2514 -2.0527 -1.9884 -0.7625 0.8546 -5.3970 0.1546 2.1155 -3.2514 -0.0676 1.0283 -5.5787 1.3458 1.5195
-7.1960 2.9512 0.6015 -1.8069 -1.7931 1.4119 -7.8306 0.1864 2.6436 1.9102 0.7130 -0.3845 2.5573 -1.4530 -1.0277 0.3205 -1.0931 -0.0299 -7.6878 1.6733 2.7103 3.0590 1.1681 -1.2329 3.6982 -0.9695 -1.7724 -6.4277 -0.3570 3.0477 -0.9205 -0.1959 -0.0754 5.2473 0.6900 -2.0787 8.5600 -1.8391 -1.8660 7.6022 -2.0282 -2.8557 8.4029 -0.8525 -1.0934 6.5280 -1.1605 -2.9285 7.3158 -0.1461 -1.1225 -3.4896 1.0176 0.3685 -4.6395 1.7663 0.6193 -4.2381 -0.5539 1.8951 1.4284 -0.5315 -0.8373 -6.6748 2.2138 1.8800 4.1158 0.1966 -1.3286 6.3872 -0.2651 -2.0604 -1.9997 -0.7753 0.8263 -5.3913 0.1601 2.1331 -3.2568 -0.0729 1.0143 -5.5733 1.3503 1.5424
-7.5952 2.3191 -0.2802 -1.8779 -1.7245 2.0064 -7.6364 1.2296 3.0938 2.0598 0.4466 -0.1227 2.8741 -1.2777 0.3541 0.4714 -0.8868 0.8979 -8.1001 1.3845 1.7159 3.6506 0.5950 -0.0124 3.9994 -1.1758 -0.7085 -6.6669 0.1545 3.2340 -0.7104 -0.2022 0.4628 5.7641 0.1412 -0.8008 8.2502 -1.3082 -3.9978 7.7068 -2.2222 -3.1409 8.0152 0.0424 -3.8264 6.8952 -1.8408 -2.0635 7.1901 0.5209 -2.7866 -3.6205 0.6778 0.0924 -4.9685 1.2646 -0.1026 -4.2343 -0.0714 2.2644 1.6836 -0.6460 -0.0791 -7.1291 2.0064 1.0347 4.3018 -0.0786 -0.9510 6.4976 -0.3975 -1.8890 -1.9405 -0.6777 1.2888 -5.6234 0.4661 2.1367 -3.2801 0.0122 1.1992 -5.9764 1.2485 0.9806
-8.1239 3.5924 2.3397 -2.8064 -1.5213 -0.0192 -8.8661 0.0880 2.8090 2.1553 -0.9925 -1.6188 2.8426 -0.8626 0.5798 0.1588 -0.8870 0.0851 -8.6449 1.5014 3.1684 3.6142 -0.5116 -2.0895 4.2918 -0.2983 0.1125 -7.5296 -0.6539 2.8070 -1.0528 0.2610 0.4296 6.0633 -0.0289 -1.7743 10.3505 -1.4312 -3.1604 10.1748 -0.4492 -2.1904 9.2434 -2.0406 -3.7631 8.8327 -0.0223 -1.7783 7.8873 -1.6592 -3.4125 -4.2615 1.7639 0.8639 -5.6145 2.3595 1.2682 -5.0450 -0.3854 1.7418 1.7018 -0.3241 -0.3478 -8.0748 2.1715 2.0680 4.7514 -0.8706 -1.1991 7.6090 -0.6497 -2.3151 -2.6533 -0.3536 0.4636 -6.3856 0.2171 2.0970 -3.9661 0.3869 1.0239 -6.6525 1.6003 1.8112
-8.5224 3.5590 2.5076 -3.0938 -1.2615 -0.3596 -9.2154 -0.0468 2.5602 2.4836 -1.5063 -0.9129 2.9861 0.6503 0.2518 0.2754 -0.4478 0.4908 -9.1281 1.3544 3.0482 4.1391 -1.7439 -0.8742 4.4657 0.5894 -0.5350 -7.8566 -0.7385 2.7236 -1.2178 0.4436 0.3420 6.6622 -1.0181 -1.0648 10.4880 -1.2234 -3.9777 10.2905 -0.1850 -3.0516 9.5061 -2.2582 -4.0420 9.1053 -0.1236 -2.1504 8.2891 -2.2527 -3.1652 -4.4544 1.8917 1.1737 -5.8436 2.4143 1.5751 -5.2515 -0.3803 1.7414 1.7672 -0.1721 -0.4377 -8.3908 2.1346 2.0983 4.9614 -0.6307 -1.3295 8.0089 -1.1142 -2.2031 -2.7940 -0.1744 0.4137 -6.6266 0.1886 2.1047 -4.1292 0.4651 1.1406 -6.9049 1.5868 1.9320
-8.4591 3.3644 3.3464 -2.4844 -1.4126 1.8072 -9.4580 0.1372 1.9000 2.6272 -1.4003 -0.4763 2.3760 0.6777 -1.8806 -0.0543 -0.3737 -0.5426 -9.3205 1.2396 2.8339 3.9363 -1.6547 -1.5535 4.0437 0.7479 -1.9460 -8.1391 -0.7176 1.8572 -1.2249 0.5329 0.4696 6.2796 -0.8219 -2.5411 11.0347 -1.5161 -2.7733 10.2328 -1.2554 -3.8936 10.4007 -1.5690 -1.4801 8.7615 -1.0198 -3.7673 8.9864 -1.4055 -1.3040 -4.3596 1.8529 1.8098 -5.7312 2.3149 2.3792 -5.3993 -0.3458 1.3564 1.7144 -0.0610 -0.5558 -8.3813 2.2331 2.3467 4.9687 -0.5361 -1.5549 8.0278 -1.0812 -2.4589 -2.6011 -0.1994 1.2196 -6.7714 0.2139 1.7936 -4.0981 0.4678 1.4316 -6.9075 1.5877 2.1767
-9.3192 3.5625 1.3676 -3.1962 -2.0112 1.3409 -9.7254 0.5015 3.5160 2.9040 0.7239 -0.9288 3.1492 -1.4207 0.3175 0.3579 -0.2157 0.7726 -9.7258 1.9325 3.1099 4.2804 0.2795 -1.9119 4.5654 -1.7885 -0.6362 -8.1786 0.0232 3.8055 -1.4698 -0.0179 0.2573 6.7178 -1.2082 -2.5105 11.5717 -1.0387 -3.5095 11.0057 -2.1499 -2.9387 10.7647 0.0796 -3.8319 9.4920 -2.2333 -2.6156 9.2694 0.1180 -3.5616 -5.1307 1.3436 0.5240 -6.5543 1.9840 0.7755 -5.4854 -0.0445 2.5675 1.7754 -0.5544 -0.3890 -9.0576 2.0923 1.7907 5.5017 -0.5719 -1.2514 8.5061 -1.0563 -2.8329 -3.0371 -0.6462 1.0276 -7.0138 0.5314 2.6581 -4.4988 0.2528 1.3536 -7.4689 1.5328 1.7336
-9.4352 3.7834 2.4789 -2.8722 -1.4036 2.2745 -10.1768 0.0637 2.9153 2.5975 -0.2274 -2.1644 3.2671 -0.9858 0.2065 0.1631 -0.7153 -0.0612 -10.3071 1.4721 2.3271 4.2845 0.0160 -2.4950 4.9860 -0.7504 -0.2304 -8.7884 -0.6754 2.6746 -1.4420 0.2523 0.3072 7.1618 -0.3039 -2.2000 11.7988 -1.7775 -3.5925 11.5158 -1.3000 -2.2907 10.7392 -1.8395 -4.5559 10.0719 -0.8561 -1.8651 9.2628 -1.4144 -4.2244 -5.0143 1.9790 1.6518 -6.4758 2.5076 1.9937 -5.9403 -0.3709 1.7822 1.9139 -0.0905 -0.4884 -9.1068 2.3100 2.7394 5.4859 -0.9469 -1.8055 8.8105 -0.9328 -2.7907 -2.9556 -0.2315 1.3753 -7.3865 0.2604 2.2194 -4.5616 0.4871 1.5449 -7.5960 1.6903 2.2734
-9.7534 3.1820 1.0720 -3.2055 -1.8879 1.4394 -9.6868 0.7950 4.0257 2.7533 0.3877 -1.6930 3.1189 -1.5126 -0.0088 0.1148 -0.6430 -0.1961 -10.1727 1.4028 2.7257 4.5116 0.5665 -1.7719 4.8660 -1.3041 -0.2421 -8.3361 -0.1049 3.7989 -1.3186 0.2633 0.7168 7.2786 -0.3803 -1.6227 11.5420 -1.6662 -3.9723 11.1974 -2.2091 -2.7382 10.6875 -0.7285 -4.5758 9.8857 -1.8256 -1.9876 9.3420 -0.2731 -3.9254 -5.2471 1.4767 0.6235 -6.7411 1.9945 0.8070 -5.6087 -0.0460 2.6065 1.9571 -0.1719 -0.1769 -9.0938 2.3259 2.1662 5.4633 -0.7726 -1.6914 8.8106 -0.8706 -2.5657 -3.0274 -0.4665 1.1843 -7.1560 0.5142 2.7146 -4.5749 0.3644 1.4281 -7.6068 1.5900 1.8591
-9.4950 3.5589 1.6637 -2.7085 -1.0426 2.7633 -9.8250 0.3768 3.5947 3.0385 0.8349 -0.9626 2.9445 -1.6806 -0.4171 0.4250 -0.1167 0.6105 -10.1562 1.3596 2.5085 4.4437 0.4931 -1.9191 4.3892 -1.8676 -1.3780 -8.5993 -0.5996 3.0243 -1.4559 0.1160 0.3341 6.8072 -0.9660 -2.7702 11.7487 -1.4386 -3.3196 10.9123 -2.5193 -3.3595 11.2017 -0.1117 -3.1341 9.3708 -2.3938 -3.1944 9.6913 0.1217 -2.9465 -5.0565 1.7648 1.1135 -6.5656 2.2552 1.1799 -5.7935 -0.4217 2.0300 1.7203 -0.3840 -0.7187 -9.0197 2.3095 2.3551 5.5331 -0.6613 -1.4573 8.6355 -1.0542 -2.8861 -2.8670 -0.1673 1.5407 -7.2680 0.2261 2.3059 -4.4965 0.4093 1.5145 -7.5550 1.5995 1.9245
-10.5006 3.4891 1.3371 -3.2877 -1.6981 2.0756 -10.5459 0.3643 3.7601 3.1043 0.5217 -1.6978 3.3025 -1.6966 -0.4639 0.1849 -0.6548 -0.1947 -10.7017 1.8486 3.3040 4.9483 0.5612 -1.7929 5.1220 -1.5667 -0.6380 -8.9439 -0.0846 3.9655 -1.3660 0.3248 0.6601 7.7678 -0.5296 -1.8287 12.2812 -1.7232 -4.0801 11.9076 -2.2195 -2.8090 11.4258 -0.8573 -4.7914 10.6044 -1.8821 -2.1173 9.9913 -0.4161 -4.2035 -5.6251 1.6738 0.9062 -7.2137 2.1885 1.1097 -6.1122 -0.0766 2.6579 2.1637 -0.2686 -0.2802 -9.8394 2.1824 2.0527 5.9039 -0.8340 -1.9956 9.3860 -0.9721 -2.7641 -3.1728 -0.3176 1.4313 -7.7104 0.5310 2.8154 -4.8953 0.4655 1.6045 -8.1788 1.6465 1.9770
-10.2669 3.8764 1.9652 -3.1539 -1.4757 2.4281 -10.6590 0.1826 3.3531 3.1716 0.6488 -1.5148 3.4586 -1.4245 -0.0582 0.4555 -0.2020 0.5106 -10.7217 1.7547 3.2613 4.6948 0.1319 -2.4137 4.9794 -1.8090 -0.9862 -9.0955 -0.3569 3.5819 -1.5292 0.0609 0.2386 7.3559 -1.2220 -2.8599 12.4878 -1.3583 -3.5398 11.7277 -2.5176 -3.2556 11.8601 -0.1018 -3.6645 10.2302 -2.5066 -3.0680 10.2739 0.0772 -3.4648 -5.5359 1.8203 1.1570 -7.0798 2.4096 1.4761 -6.2072 -0.2543 2.3906 1.9736 -0.5856 -0.7480 -9.7661 2.3061 2.1547 6.0366 -0.6017 -1.6476 9.2567 -1.1685 -3.0541 -3.1688 -0.3004 1.4228 -7.7636 0.4164 2.6460 -4.8860 0.4706 1.6004 -8.1287 1.7292 2.0889
-10.6290 3.5503 1.5948 -3.4081 -1.8115 1.6449 -10.4329 0.6462 4.2584 3.1530 0.7192 -1.6467 3.3063 -1.6164 -0.5448 0.1816 -0.5161 -0.2390 -10.9617 1.3880 2.9773 4.9989 0.6150 -1.9318 5.1515 -1.5553 -0.7656 -9.0533 -0.2289 3.9060 -1.3929 0.3726 0.6443 7.8168 -0.5000 -1.9566 12.4411 -1.8548 -3.9145 12.0367 -2.1741 -2.5918 11.5895 -1.1258 -4.7722 10.7216 -1.7782 -2.0160 10.1193 -0.6528 -4.2898 -5.7056 1.7110 0.8933 -7.3295 2.1870 1.1046 -6.1465 -0.0558 2.6911 2.1848 -0.1560 -0.3185 -9.8377 2.3515 2.4039 5.9567 -0.8297 -2.0909 9.4834 -1.0059 -2.8057 -3.2501 -0.3402 1.2793 -7.7738 0.5074 2.8422 -4.9744 0.4755 1.5747 -8.2456 1.6779 2.0691
-10.6089 3.4610 1.4668 -3.4840 -1.8855 1.4158 -10.3613 0.7053 4.3007 3.3594 0.8830 -1.0075 3.1505 -1.7239 -0.9723 0.1458 -0.4199 -0.3669 -10.9160 1.4342 3.0317 5.2042 0.6070 -1.1823 4.7338 -1.7037 -1.9655 -8.9780 -0.1865 3.9595 -1.3642 0.3185 0.7154 7.5094 -0.6263 -2.7882 12.5178 -1.7555 -3.5636 11.4659 -2.3759 -4.2846 12.2352 -0.7613 -2.5818 10.0115 -2.0526 -4.0729 10.7167 -0.3330 -2.2323 -5.6339 1.7837 1.0080 -7.2623 2.2541 1.1886 -6.1482 -0.1258 2.6202 2.1715 -0.3468 -0.3216 -9.8004 2.3526 2.3952 6.0953 -0.7693 -1.5367 9.3963 -1.0110 -2.9470 -3.2612 -0.3837 1.2172 -7.7388 0.5014 2.8442 -4.9526 0.4698 1.5649 -8.2034 1.6903 2.0950
-11.5309 3.7274 2.4893 -4.2061 -1.3400 0.1007 -11.1640 0.1181 4.1258 3.4632 0.3427 -1.9543 3.5553 -1.7483 -0.6868 0.1624 -0.4808 -0.4788 -11.4459 1.6395 3.9538 5.4334 0.3629 -1.8882 5.3046 -2.0070 -1.5346 -9.5658 -0.2255 4.1327 -1.4966 0.3463 0.5677 8.1199 -1.2202 -2.8658 13.4046 -1.4734 -3.7102 12.4845 -1.2446 -4.6866 12.9980 -1.6645 -2.4171 11.0329 -1.1858 -4.4584 11.5790 -1.6289 -1.9614 -6.1042 2.1643 1.4522 -7.8567 2.6046 1.7698 -6.6342 -0.0227 2.5295 2.2658 -0.3068 -0.5518 -10.5248 2.3586 2.8569 6.6876 -0.8948 -1.6087 10.0965 -1.3207 -2.9590 -3.6513 -0.0568 0.7750 -8.2712 0.5947 2.9672 -5.3274 0.6858 1.5571 -8.8088 1.8759 2.4841
-11.7679 3.5159 2.3417 -4.2036 -1.2857 0.1613 -11.0595 0.2723 4.6117 3.8798 0.7110 -0.7793 3.3020 -1.3255 -1.8901 0.1767 -0.1157 -0.5404 -11.6155 1.4481 3.8418 5.7461 0.0698 -0.7887 5.1023 -1.2219 -2.6850 -9.6586 -0.3276 4.1001 -1.5005 0.4017 0.6198 8.3608 -0.6660 -2.5742 13.4864 -1.9806 -3.6286 13.1429 -1.0925 -2.6845 12.5360 -2.5957 -4.3797 11.7854 -0.6665 -2.3579 11.0623 -2.3206 -4.2180 -6.2231 2.1744 1.3745 -8.0030 2.5481 1.6985 -6.6664 -0.0130 2.5943 2.2970 -0.3565 -0.5317 -10.6645 2.2450 2.8407 6.6430 -1.1971 -1.8988 10.1872 -1.2949 -2.9704 -3.6694 0.0025 0.7891 -8.3531 0.5449 2.9664 -5.3911 0.7259 1.5526 -8.9319 1.8003 2.4347
-11.8783 3.6820 2.3938 -4.0224 -1.5244 0.7934 -11.3561 0.2668 4.4254 4.0884 0.6080 -0.2915 3.3931 -1.4116 -1.7157 0.3867 -0.4040 0.1183 -11.7153 1.6196 3.9021 5.9502 0.0529 -0.6843 5.2268 -1.2640 -2.6400 -9.9513 -0.3968 3.8386 -1.5435 0.5315 0.4996 8.4609 -0.5992 -2.6252 13.5649 -2.0588 -3.9389 13.2761 -1.2400 -2.8416 12.5903 -2.5017 -4.7159 11.9140 -0.7638 -2.3887 11.0721 -2.1833 -4.4678 -6.3976 2.0784 1.1655 -8.1241 2.5544 1.6468 -6.7538 0.0834 2.7164 2.3000 -0.0704 -0.8577 -10.8689 2.2327 2.6796 6.7569 -1.1491 -1.8139 10.3424 -1.2301 -3.0992 -3.6528 -0.0342 0.9713 -8.5257 0.5671 2.9486 -5.4623 0.7312 1.5815 -9.0707 1.8232 2.3994
-11.5791 4.0464 3.3045 -3.4903 -0.9905 2.5932 -11.8400 0.0366 3.0985 3.3198 -0.6132 -2.4155 4.0358 -0.6400 0.0688 0.3440 -0.5618 0.0705 -11.9436 1.5137 3.4662 5.1938 -1.2553 -2.7546 5.9827 -0.4512 -0.5352 -10.2276 -0.5202 3.1859 -1.6322 0.3764 0.2974 8.4420 -1.6271 -2.4431 13.5933 -1.5961 -4.3579 12.5682 -2.3933 -4.9113 13.3433 -0.7664 -3.2675 11.1238 -2.4353 -4.3989 11.9129 -0.6329 -2.5627 -6.1961 2.3058 1.7952 -7.9370 2.7745 2.2355 -7.0394 -0.1167 2.0065 2.3508 -0.1103 -0.7263 -10.7585 2.4763 3.1081 6.7675 -0.6186 -2.1493 10.3853 -1.4710 -3.0920 -3.5116 0.0636 1.5041 -8.7165 0.4894 2.5640 -5.4562 0.7864 1.7134 -9.0348 1.9307 2.6027
-11.5502 4.0322 3.9279 -3.6952 -1.2547 2.3912 -11.9821 0.1799 2.8645 3.3298 -0.5858 -2.4502 4.0189 -0.9807 -0.0133 0.2869 -0.7114 -0.0279 -12.1439 1.7545 2.8996 5.2879 -0.5610 -2.9093 5.9115 -1.4434 -0.6838 -10.4199 -0.4643 2.8233 -1.6255 0.3505 0.4023 8.4300 -1.6880 -2.8792 13.8344 -1.2789 -4.1357 12.7905 -0.9600 -5.0604 13.5126 -1.7149 -2.8738 11.2952 -1.0615 -4.8107 11.9693 -1.8867 -2.3536 -6.1366 2.3031 2.3295 -7.8614 2.7810 2.8357 -7.1620 0.0062 1.7901 2.3535 -0.3668 -0.7515 -10.8133 2.5431 3.3598 6.8606 -0.8399 -2.0481 10.4660 -1.4775 -3.2909 -3.5715 -0.0179 1.5100 -8.8352 0.5667 2.4663 -5.4868 0.7934 1.8316 -9.0636 1.9830 2.8566
-12.0957 3.8576 2.6341 -4.2972 -1.4592 0.5969 -11.6977 0.2411 4.3426 3.9625 0.7466 -1.3279 3.6039 -1.7539 -1.3704 0.2179 -0.3834 -0.5350 -12.0193 1.7103 4.0451 5.9287 0.3899 -1.4804 5.6580 -2.0395 -1.5974 -10.1053 -0.2611 4.1396 -1.5765 0.3288 0.5825 8.8441 -1.1880 -2.0049 13.9116 -1.6157 -4.3049 13.4561 -0.4461 -3.6073 13.0616 -2.7565 -4.4369 12.0578 -0.2894 -2.9428 11.5386 -2.7785 -3.8050 -6.5579 2.1851 1.3805 -8.3023 2.6499 1.8329 -6.9932 0.0533 2.6833 2.4624 -0.3978 -0.5243 -11.1352 2.3640 2.8274 6.8556 -0.9371 -2.3268 10.6971 -1.4207 -2.9547 -3.7913 -0.0732 0.9280 -8.7506 0.6264 3.0667 -5.6324 0.7432 1.6048 -9.3013 1.9036 2.5542
-12.1299 3.9395 2.5929 -4.2032 -1.5018 0.7871 -11.8946 0.2182 4.0335 4.2349 0.6146 -0.4260 3.6924 -1.7712 -1.1587 0.4755 -0.5029 0.3625 -12.1192 1.7580 3.9790 5.9770 0.4260 -1.4564 5.7602 -2.0526 -1.4542 -10.2931 -0.3220 3.8757 -1.5841 0.3962 0.5763 8.9292 -1.1470 -2.0464 13.8649 -1.6495 -4.6263 13.3606 -0.3829 -4.1216 13.0918 -2.8202 -4.4630 11.9866 -0.1736 -3.3834 11.6053 -2.8146 -3.7163 -6.6653 2.0919 1.1634 -8.3800 2.6070 1.6797 -7.0597 0.0438 2.6705 2.4617 -0.3275 -0.6968 -11.0878 2.5760 3.0654 6.9194 -0.9725 -2.2229 10.7350 -1.3672 -3.0759 -3.7894 -0.1165 0.9855 -8.8502 0.6162 2.9855 -5.6884 0.6906 1.5578 -9.3495 1.9439 2.5335
-12.1089 4.1682 3.7366 -3.9058 -1.2799 2.1177 -12.3742 0.1254 3.8087 3.5551 -0.6490 -2.6036 4.3500 -0.1960 -0.0769 0.4295 -0.4137 0.0323 -12.6792 1.5760 3.3290 5.5205 -1.1575 -3.0157 6.3621 -0.0955 -0.8700 -10.7643 -0.5077 3.4724 -1.7066 0.4046 0.3119 8.9465 -0.8057 -3.0320 14.3630 -2.1583 -4.1154 13.3017 -2.9543 -4.6435 14.0869 -1.0072 -3.3199 11.7182 -2.6867 -4.4259 12.5086 -0.5488 -2.9406 -6.6921 2.3010 1.7799 -8.3929 2.8013 2.3913 -7.4236 -0.0931 2.3506 2.5316 -0.0720 -0.9192 -11.3465 2.5673 3.3415 7.1319 -1.2108 -2.0806 10.9518 -1.3889 -3.4115 -3.7674 0.0179 1.3553 -9.2033 0.5192 2.8452 -5.8264 0.7722 1.7668 -9.5665 1.9719 2.8154
-12.1280 4.1490 3.9972 -4.0554 -1.3747 1.9347 -12.4955 0.1712 3.6414 3.5881 -0.7992 -2.5043 4.3466 -0.5656 0.0168 0.3797 -0.5557 -0.0290 -12.7678 1.6286 3.1481 5.5980 -0.7209 -3.0643 6.3694 -0.4963 -0.6611 -10.8876 -0.4995 3.2534 -1.6882 0.4245 0.4389 9.0816 -0.6603 -2.8180 14.3977 -2.1613 -4.3709 13.3384 -2.1442 -5.3271 14.1817 -1.7934 -3.0272 11.7819 -1.7231 -4.9903 12.6662 -1.3542 -2.4732 -6.6478 2.3793 2.0380 -8.3743 2.8520 2.6330 -7.4861 -0.0761 2.3333 2.5689 -0.1714 -0.8341 -11.4347 2.6290 3.2448 7.1655 -1.2103 -2.1465 11.0534 -1.2809 -3.3833 -3.8096 -0.0001 1.3817 -9.2892 0.5279 2.8125 -5.8416 0.8230 1.8725 -9.6112 2.0027 2.8830
-12.6784 4.1264 2.6980 -3.9745 -1.0419 2.7156 -12.6439 0.2220 3.7853 4.5770 -0.3091 0.0964 3.6641 -0.9961 -2.2507 0.4578 -0.6553 0.2793 -12.7131 1.7775 3.9634 6.5264 -0.4471 -0.6534 5.6786 -1.5376 -2.7330 -10.9350 -0.3701 3.6247 -1.6701 0.2643 0.6412 9.1995 -1.7431 -2.6440 14.5993 -1.4957 -4.6471 14.2981 -1.0820 -3.3322 13.5951 -1.9872 -5.5003 12.7475 -1.1190 -2.6429 11.9588 -2.1118 -5.0228 -6.8947 2.3183 1.5863 -8.6786 2.8280 1.9933 -7.5967 -0.0329 2.4421 2.6583 -0.3643 -0.6033 -11.6715 2.6385 3.0069 7.3170 -0.7831 -2.3100 11.1951 -1.5962 -3.4271 -3.8187 0.0557 1.6563 -9.4187 0.5971 2.8612 -5.9473 0.8034 1.8327 -9.8312 2.0413 2.5840
-12.9101 3.9289 2.6984 -3.9422 -0.8136 2.8726 -12.6744 0.0193 3.6890 4.6186 -0.2683 0.1070 3.7095 -1.1017 -2.1508 0.5066 -0.4338 0.3414 -12.8344 1.5607 3.8855 6.5984 -0.5138 -0.6335 5.7137 -0.8961 -2.9117 -10.9134 -0.4426 3.6860 -1.6675 0.4520 0.6298 9.2539 -0.8557 -2.9983 14.6630 -2.1436 -4.5739 14.3234 -2.0606 -3.1941 13.6780 -1.8973 -5.5803 12.7872 -1.6940 -2.6162 12.0693 -1.5364 -5.1981 -6.9806 2.4073 1.6460 -8.7915 2.8628 2.0667 -7.5571 0.0726 2.5881 2.7024 -0.1754 -0.6224 -11.8590 2.4542 2.8545 7.3622 -1.3255 -2.1764 11.2593 -1.4016 -3.5527 -3.7989 0.2487 1.7170 -9.4308 0.6014 2.9255 -5.9564 0.9502 1.9099 -9.9291 2.0019 2.5909
-12.9098 4.0023 2.7534 -3.9870 -0.8530 2.8423 -12.7138 0.0646 3.5878 4.6034 -0.5811 0.1316 3.7071 -0.9055 -2.2290 0.4793 -0.5008 0.3081 -12.8470 1.5972 3.8923 6.5746 -0.9840 -0.5888 5.7088 -1.1475 -2.8902 -10.9802 -0.4323 3.5446 -1.6569 0.4716 0.6779 9.2156 -1.7797 -2.9201 14.7410 -1.5921 -4.6206 14.4013 -1.5532 -3.2368 13.7115 -1.6847 -5.6165 12.8194 -1.6082 -2.6277 12.0557 -1.7443 -5.2149 -6.9505 2.4891 1.7843 -8.7675 2.9376 2.1934 -7.6115 0.0620 2.4379 2.7112 -0.2339 -0.5887 -11.8407 2.5461 2.9898 7.4396 -0.8278 -2.2254 11.2664 -1.6462 -3.5456 -3.8100 0.2439 1.7404 -9.4678 0.6206 2.8475 -5.9648 0.9757 1.9277 -9.9274 2.0637 2.6455
-12.7324 4.1343 3.5439 -4.7141 -1.3902 0.6778 -12.3114 0.3435 4.8066 3.7129 -1.1970 -2.5139 4.4171 -0.3167 -0.1978 0.2987 -0.5924 -0.2654 -12.8955 1.4783 3.8731 5.7736 -1.2617 -3.1020 6.4421 -0.2388 -0.9189 -10.7568 -0.2891 4.2070 -1.7897 0.4108 0.3115 9.3636 -0.8722 -2.9549 14.9049 -2.0443 -4.1017 13.8842 -2.8987 -4.6089 14.5567 -0.8920 -3.3152 12.2165 -2.6761 -4.3577 12.9398 -0.4803 -2.9287 -7.0828 2.4391 1.5614 -8.8573 2.8950 2.1228 -7.5312 0.1239 2.7048 2.5697 -0.2957 -1.0497 -11.7812 2.5796 3.4012 7.4452 -1.2813 -2.1527 11.3886 -1.3905 -3.3775 -4.1102 0.0374 0.8813 -9.3614 0.6929 3.2292 -6.0849 0.9031 1.6454 -9.9050 2.0791 2.8789

$$$$
CHEMBL87441
 OpenBabel02201516223D

 28 30  0  0  0  0  0  0  0  0999 V2000
   -0.0187    1.5258    0.0104 C   0  0  0  0  0
   -2.5136  -13.3493    4.6058 C   0  0  0  0  0
   -0.3262  -16.9312    0.8905 C   0  0  0  0  0
    1.7207  -10.5959   -2.8481 O   0  0  0  0  0
    0.0021   -0.0041    0.0020 C   0  0  0  0  0
    0.7457   -1.8880   -1.2798 C   0  0  0  0  0
    1.0918   -8.5856   -1.7813 C   0  0  0  0  0
    1.7761   -7.9473   -2.9918 C   0  0  0  0  0
    1.4779   -2.2655   -2.5691 C   0  0  0  0  0
    0.6709   -0.4649   -1.1737 O   0  0  0  0  0
   -1.9791  -14.3170    3.7003 O   0  0  0  0  0
   -0.9035  -16.0703    1.8741 O   0  0  0  0  0
   -0.2488  -10.4031    0.6016 S   0  0  0  0  0
    2.6945   -5.7294   -2.2370 C   0  0  0  0  0
    0.6258   -5.7501   -3.4179 C   0  0  0  0  0
    2.5884   -4.3539   -2.1543 C   0  0  0  0  0
    0.5853   -4.3744   -3.2919 C   0  0  0  0  0
   -1.2454  -12.4807    2.3772 C   0  0  0  0  0
   -0.1661  -14.2835    0.5439 C   0  0  0  0  0
    0.5787  -12.2649   -0.8059 C   0  0  0  0  0
    1.1707  -10.0864   -1.8931 C   0  0  0  0  0
    1.6972   -6.4466   -2.8799 C   0  0  0  0  0
   -1.3493  -13.8440    2.5930 C   0  0  0  0  0
   -0.8001  -14.7308    1.6598 C   0  0  0  0  0
    0.6034  -10.9022   -0.8845 C   0  0  0  0  0
   -0.6039  -12.0178    1.2488 C   0  0  0  0  0
   -0.0393  -12.8910    0.2875 C   0  0  0  0  0
    1.5546   -3.7245   -2.6778 N   0  0  0  0  0
  1  5  1  0  0  0
  2 11  1  0  0  0
  3 12  1  0  0  0
  4 21  2  0  0  0
  5 10  1  0  0  0
  6  9  1  0  0  0
  6 10  1  0  0  0
  7  8  1  0  0  0
  7 21  1  0  0  0
  8 22  1  0  0  0
  9 28  1  0  0  0
 11 23  1  0  0  0
 12 24  1  0  0  0
 13 25  1  0  0  0
 13 26  1  0  0  0
 14 16  2  0  0  0
 14 22  1  0  0  0
 15 17  1  0  0  0
 15 22  2  0  0  0
 16 28  1  0  0  0
 17 28  2  0  0  0
 18 23  2  0  0  0
 18 26  1  0  0  0
 19 24  2  0  0  0
 19 27  1  0  0  0
 20 25  2  0  0  0
 20 27  1  0  0  0
 21 25  1  0  0  0
 23 24  1  0  0  0
 26 27  2  0  0  0
M  CHG  1   6   1
M  END

>  <MOLID> (CHEMBL87441)
CHEMBL87441

>  <SMILES_CANONICAL> (CHEMBL87441)
CCO[CH+]Cn1ccc(cc1)CCC(=O)c1cc2c(s1)cc(c(c2)OC)OC	CHEMBL87441

>  <FINGERPRINT> (CHEMBL87441)
0000000000000001000000000100001000010001000000000000100000001000001000000000000001000001000010101100000000000001000001100000000000000000000011000101000000000000000000001000000000000000000000000000001000000000000000001000000000000000000000000000000000010000000000000000000000001000000000000000000011001000000010001100000000001000001100000000001000000100110000000000000110010000100000001000110000000000110010000011001000000010001010000000000000000000000000010000000000110000100000010000000000001110110000000000110000000001001000010000000000000000000000101000000000000000001010000000000000100000000000000000100000000000000000100000001000000101010000000000000000001001000000000101100000001010100000101001100000100010100000000000000010000000000101000101000000000000000101000000001000000000001011001000001010000101000000000000000000000000000000000000000000000010000000000000000000000000000001010001010000000000000000000000001000000000000000000000111000000000000010101000100000000100000000000000000000000000110000010000010000110000

>  <MACCS166> (CHEMBL87441)
000000000000000000000000010000000001000000001000110000000000000000000001001101001110100100101011011100001001100011000111110011101011000111011111111111111110111110111000

>  <OB_MW> (CHEMBL87441)
399.15

>  <OB_logP> (CHEMBL87441)
5.0149

>  <OB_PSA> (CHEMBL87441)
77.93

>  <OB_MR> (CHEMBL87441)
112.955

>  <OB_ATOMIC_CHARGES> (CHEMBL87441)
0.0402261833 0.2526209297 0.2526206166 -0.2907963657 0.204832926 0.552003513 0.0743595089 0.034583236 0.4173936013 -0.1385390642 -0.4683545877 -0.4683709581 -0.0839558333 0.0145701332 0.0145701332 0.0793446038 0.0793446038 0.0465144302 0.0405594592 0.0099401558 0.1793110732 -0.018776102 0.1728830382 0.1724174462 0.0641152431 0.0327662001 0.0098006716 -0.2759847952

>  <MCT_HBD> (CHEMBL87441)
1

>  <MCT_HBA> (CHEMBL87441)
5

>  <ENSEMBLE_TOTAL> (CHEMBL87441)
50

>  <ENSEMBLE_RMSD> (CHEMBL87441)
0.271 0.302 0.334 0.826 0.849 0.865 0.883 0.985 1.168 1.176 1.234 1.273 1.286 1.427 1.489 1.517 1.526 1.565 1.605 1.614 1.665 1.680 1.690 1.771 1.793 1.866 1.941 1.963 2.153 2.393 2.481 2.485 2.501 2.505 2.511 2.533 2.534 2.549 2.551 2.561 2.599 2.725 2.785 2.828 2.868 2.923 2.969 2.974 2.978 3.045

>  <ENSEMBLE_COORDS> (CHEMBL87441)
-0.1005 10.5570 0.0537 -2.8943 -4.7698 4.9954 -0.6374 -8.2540 1.1850 1.3723 -1.7164 -2.2615 0.0577 9.0222 0.1529 0.4381 7.0393 -0.9835 0.6393 0.2481 -1.1994 1.3726 0.9055 -2.3401 0.9894 6.4691 -2.2510 0.4020 8.4798 -1.0885 -2.2738 -5.7492 4.1155 -1.2251 -7.4341 2.2426 -0.5587 -1.8095 1.0631 2.0968 3.0269 -1.7857 0.5342 3.0816 -2.5023 1.8983 4.4108 -1.7239 0.3541 4.4131 -2.5467 -1.5625 -3.8441 2.8489 -0.4709 -5.6109 0.9006 0.2746 -3.5555 -0.4254 0.7748 -1.2512 -1.3101 1.3396 2.4116 -2.1180 -1.6647 -5.2238 3.0298 -1.1108 -6.1075 2.0408 0.2123 -2.1419 -0.3121 -0.8872 -3.3918 1.6461 -0.3771 -4.2269 0.7352 1.0068 5.0215 -2.1613
-0.0271 10.5891 0.0381 -2.9231 -4.7913 4.9767 -0.6223 -8.2622 1.1811 1.4289 -1.7102 -2.2183 0.1941 9.0581 0.1571 0.4150 7.0591 -0.9922 0.6038 0.2406 -1.2218 1.3072 0.9042 -2.3676 0.8321 6.4884 -2.2969 0.3649 8.4974 -1.1075 -2.2841 -5.7687 4.1030 -1.2181 -7.4453 2.2340 -0.5642 -1.8106 1.0738 2.1143 3.0336 -1.7495 0.6433 3.0794 -2.4651 1.9364 4.4111 -1.7059 0.3093 4.4120 -2.5580 -1.5728 -3.8495 2.8491 -0.4636 -5.6158 0.9047 0.2849 -3.5598 -0.4142 0.7912 -1.2609 -1.3039 1.3574 2.4002 -2.1053 -1.6705 -5.2371 3.0240 -1.1066 -6.1179 2.0359 0.2221 -2.1470 -0.3072 -0.8944 -3.3979 1.6572 -0.3740 -4.2318 0.7441 0.9163 5.0326 -2.1654
-0.0274 10.5897 0.0411 -2.9310 -4.7922 4.9726 -0.6079 -8.2624 1.1904 1.4550 -1.7097 -2.2013 0.2089 9.0609 0.1594 0.4269 7.0618 -0.9815 0.6142 0.2400 -1.2163 1.1426 0.9030 -2.4560 0.8312 6.4912 -2.2935 0.3663 8.4995 -1.0999 -2.3012 -5.7695 4.0934 -1.2177 -7.4460 2.2333 -0.5622 -1.8099 1.0768 2.1088 3.0362 -1.7492 0.9717 3.0829 -2.3189 1.9335 4.4128 -1.7061 0.2329 4.4046 -2.5958 -1.5821 -3.8494 2.8446 -0.4554 -5.6159 0.9107 0.3012 -3.5603 -0.4033 0.8111 -1.2621 -1.2931 1.2232 2.3946 -2.1893 -1.6799 -5.2372 3.0190 -1.1065 -6.1185 2.0357 0.2366 -2.1476 -0.2992 -0.8955 -3.3981 1.6592 -0.3663 -4.2323 0.7506 0.8692 5.0342 -2.1833
0.1697 11.2719 -1.3010 -2.3092 -5.4721 5.2087 -1.1728 -8.4750 0.6366 1.4778 -1.6302 -2.0339 0.2564 9.8345 -0.7424 0.6031 7.6370 -1.2616 0.6054 0.3595 -0.8744 1.2773 0.9704 -1.9599 1.1470 6.6961 -2.3053 0.6509 8.9701 -1.7643 -2.1092 -6.3060 4.1285 -1.4985 -7.8342 1.8365 -0.3173 -2.0672 1.4320 2.0047 3.2749 -0.9681 0.0082 3.1651 -2.3475 2.0076 4.6322 -1.1021 0.0083 4.5601 -2.4242 -1.3051 -4.2365 2.9942 -0.6876 -5.7920 0.6726 0.1279 -3.6266 -0.4449 0.7808 -1.1787 -0.9966 1.0627 2.4737 -1.7283 -1.5893 -5.6821 3.0687 -1.2554 -6.5175 1.8127 0.2492 -2.1770 -0.1100 -0.7552 -3.6857 1.8200 -0.4546 -4.4349 0.6952 1.0172 5.2702 -1.9411
-0.3640 10.6955 -0.3669 -2.3686 -4.9804 5.2493 -0.7578 -8.2915 1.0241 0.7721 -1.6799 -2.4875 -0.6066 9.2050 -0.6637 0.3096 7.1705 -1.1881 0.7315 0.2298 -1.1104 1.1723 0.9269 -2.3341 1.4916 6.5584 -1.8675 0.5888 8.5868 -1.0118 -2.1265 -5.8857 4.1569 -1.2454 -7.5106 2.1366 -0.6117 -1.8216 1.1399 0.7957 3.0503 -2.5669 1.6921 3.1005 -1.8231 0.8469 4.4209 -2.4028 2.1023 4.4468 -1.3312 -1.4920 -3.9273 2.9128 -0.5866 -5.6302 0.8320 0.0836 -3.5685 -0.4846 0.5492 -1.2539 -1.3657 1.6815 2.4076 -1.7991 -1.5986 -5.3207 3.0488 -1.1351 -6.1700 1.9867 0.0722 -2.1507 -0.3423 -0.9208 -3.4334 1.7034 -0.4859 -4.2497 0.7071 1.4104 5.0749 -1.7519
1.0123 11.2685 -0.8488 -3.4131 -5.5206 4.5196 0.4426 -8.3804 1.6614 1.0344 -1.6362 -2.3094 0.6378 9.8138 -0.4875 0.7662 7.6238 -1.1349 0.3634 0.3527 -1.0250 0.9577 0.9668 -2.1504 1.1236 6.7013 -2.2756 1.0421 8.9686 -1.5238 -2.4794 -6.3227 3.8906 -0.5428 -7.7741 2.4439 -1.1794 -2.1195 0.8786 1.9210 3.1970 -1.1936 -0.2267 3.2368 -2.3302 1.9932 4.5431 -1.2757 -0.1519 4.6434 -2.3602 -1.9794 -4.2753 2.5619 -0.0142 -5.7521 1.0959 0.4577 -3.6022 -0.2438 0.4550 -1.1861 -1.2022 0.8482 2.4709 -1.8592 -1.7997 -5.6911 2.9327 -0.7375 -6.4841 2.1385 -0.0235 -2.1866 -0.2864 -1.2018 -3.7130 1.5300 -0.2526 -4.4202 0.8195 0.9470 5.2773 -1.9660
0.1046 11.2800 -1.3975 -2.0751 -5.5079 5.2821 -1.5378 -8.3997 0.5313 1.5293 -1.6306 -2.0306 0.0149 9.8332 -0.8700 0.4678 7.6361 -1.3091 0.6445 0.3448 -0.8654 1.3321 0.9688 -1.9359 1.2023 6.6977 -2.2331 0.6228 8.9722 -1.7865 -1.9770 -6.3243 4.1702 -1.7210 -7.7829 1.7721 -0.1018 -2.1169 1.4841 2.0235 3.2712 -0.9059 0.0721 3.1593 -2.3475 1.9978 4.6347 -0.9941 0.0766 4.5593 -2.4363 -1.1140 -4.2738 3.0488 -0.8553 -5.7568 0.6151 0.0296 -3.6092 -0.4905 0.8308 -1.1893 -0.9931 1.1055 2.4707 -1.6987 -1.5116 -5.6924 3.0921 -1.3701 -6.4900 1.7754 0.3023 -2.1926 -0.1076 -0.6351 -3.7136 1.8467 -0.5084 -4.4260 0.6707 1.0507 5.2782 -1.8868
0.0094 11.2963 -1.5757 -1.7273 -5.6998 5.3453 -1.7845 -8.3410 0.4249 1.4918 -1.6059 -2.0023 -0.0901 9.8592 -1.0163 0.4277 7.6614 -1.3837 0.6749 0.3701 -0.7652 1.3486 0.9987 -1.8259 1.2835 6.7266 -2.2136 0.5942 8.9918 -1.8699 -1.8858 -6.4179 4.1704 -1.8820 -7.7687 1.6962 0.0096 -2.1782 1.5533 1.9806 3.3038 -0.7702 0.1454 3.1918 -2.3516 2.0241 4.6630 -0.9411 0.1931 4.5773 -2.5092 -1.0002 -4.3577 3.0837 -0.9956 -5.7310 0.5704 -0.0792 -3.5728 -0.4908 0.8152 -1.1615 -0.9335 1.1171 2.4963 -1.6119 -1.4664 -5.7583 3.0925 -1.4639 -6.4959 1.7321 0.2919 -2.1799 -0.0624 -0.5805 -3.7622 1.8816 -0.5747 -4.4180 0.6634 1.1231 5.3123 -1.8906
1.0114 11.5204 -2.0087 -2.3456 -5.8727 5.1110 -0.8558 -8.5763 0.4540 1.3550 -1.5527 -1.8808 0.4430 10.1739 -1.4519 0.6047 7.8924 -1.5239 0.4859 0.4022 -0.6058 1.0917 1.0769 -1.6578 1.1542 6.7612 -2.3211 1.0580 9.1314 -2.1017 -2.1215 -6.6301 3.9718 -1.2525 -8.0288 1.6726 -0.5125 -2.1620 1.5369 1.7004 3.3819 -0.6073 -0.2002 3.2452 -2.0592 1.8023 4.7686 -0.8622 -0.1521 4.6940 -2.2265 -1.4188 -4.4620 2.9638 -0.5415 -5.8877 0.6366 0.1616 -3.6250 -0.3502 0.6586 -1.1188 -0.7966 0.8169 2.5705 -1.4015 -1.5909 -5.9323 2.9710 -1.1167 -6.6903 1.7112 0.1504 -2.1686 0.0374 -0.8493 -3.8262 1.8563 -0.4186 -4.5076 0.7177 0.8818 5.4227 -1.7849
0.3028 11.2498 -1.1129 -2.5158 -5.3985 5.1362 -0.9140 -8.5070 0.7781 1.3682 -1.6404 -2.1074 0.0673 9.7724 -0.7359 0.5331 7.5979 -1.2647 0.6260 0.3619 -0.8880 1.2541 0.9608 -2.0075 1.2603 6.6962 -2.2338 0.7588 8.9557 -1.6359 -2.1650 -6.2662 4.1203 -1.3536 -7.8394 1.9248 -0.4484 -2.0359 1.3618 -0.0793 3.1857 -2.3109 2.0533 3.2404 -1.1452 -0.0361 4.5323 -2.4470 2.0372 4.6377 -1.2268 -1.4079 -4.1978 2.9543 -0.5859 -5.7985 0.7284 0.1777 -3.6338 -0.4276 0.7311 -1.1793 -1.0392 1.0663 2.4692 -1.7765 -1.6224 -5.6532 3.0675 -1.1771 -6.5132 1.8632 0.2087 -2.1684 -0.1398 -0.8234 -3.6621 1.7889 -0.4247 -4.4312 0.7114 1.1087 5.2650 -1.9357
0.6178 11.3468 -1.2398 -2.7431 -5.5164 5.0027 -0.4944 -8.5553 0.8870 1.2343 -1.6164 -2.1098 0.3043 9.8990 -0.8313 0.6344 7.6843 -1.2976 0.5155 0.3775 -0.8487 1.1530 0.9872 -1.9481 1.2427 6.7191 -2.2734 0.9106 9.0224 -1.7304 -2.2420 -6.3696 4.0396 -1.0859 -7.9093 1.9767 -0.6886 -2.0580 1.3059 -0.1686 3.2223 -2.2329 1.9615 3.2568 -1.0764 -0.1129 4.5738 -2.3815 1.9725 4.6673 -1.1969 -1.5808 -4.2640 2.8783 -0.4108 -5.8343 0.7901 0.2448 -3.6388 -0.3616 0.6207 -1.1616 -1.0151 0.9707 2.4931 -1.7035 -1.6659 -5.7315 3.0198 -1.0326 -6.5734 1.8890 0.1171 -2.1651 -0.1240 -0.9467 -3.7021 1.7548 -0.3784 -4.4569 0.7409 1.0508 5.3032 -1.9140
0.8732 11.3697 -1.2159 -3.1045 -5.5532 4.7573 0.1813 -8.4944 1.3264 0.8835 -1.6132 -2.3192 0.5403 9.9373 -0.7574 0.7708 7.7070 -1.2131 0.3829 0.3568 -0.9295 0.9256 0.9883 -2.0724 1.3129 6.7101 -2.1991 1.0687 9.0270 -1.6748 -2.3319 -6.3850 3.9655 -0.6571 -7.8681 2.2503 -1.0721 -2.1075 1.0399 -0.2948 3.3009 -2.0655 1.9721 3.1678 -1.2330 -0.1909 4.6612 -2.1211 2.0465 4.5860 -1.2838 -1.8372 -4.2989 2.6949 -0.1379 -5.8097 0.9545 0.3364 -3.6289 -0.3197 0.4004 -1.1747 -1.1601 0.8642 2.4874 -1.7427 -1.7144 -5.7438 2.9723 -0.7965 -6.5549 2.0311 -0.0492 -2.1862 -0.2451 -1.1353 -3.7313 1.6148 -0.3134 -4.4559 0.7708 1.0766 5.3065 -1.8254
1.0602 11.3348 -1.0298 -3.2876 -5.5658 4.6114 0.4306 -8.4118 1.5640 0.9426 -1.6214 -2.3239 0.6790 9.8983 -0.6170 0.8124 7.6817 -1.1650 0.3560 0.3521 -0.9716 0.9292 0.9822 -2.0985 1.2124 6.7101 -2.2415 1.1172 9.0083 -1.6001 -2.4483 -6.3845 3.8802 -0.5103 -7.8044 2.4045 -1.2110 -2.1429 0.8968 -0.3313 3.2701 -2.1660 1.9043 3.1852 -1.2366 -0.2477 4.6332 -2.2293 1.9656 4.5950 -1.3083 -1.9789 -4.3197 2.5672 -0.0111 -5.7673 1.0719 0.4300 -3.6067 -0.2488 0.4040 -1.1834 -1.1898 0.8271 2.4821 -1.7844 -1.7812 -5.7380 2.9239 -0.7198 -6.5150 2.1130 -0.0615 -2.1941 -0.2790 -1.2148 -3.7415 1.5351 -0.2637 -4.4359 0.8092 0.9965 5.2990 -1.8875
1.4973 11.2927 -2.4096 -3.1769 -5.8777 4.5439 0.4602 -8.4819 1.1957 0.8372 -1.4297 -2.2123 1.6422 9.7864 -2.7058 1.1807 7.6721 -1.9691 0.2276 0.4368 -0.7366 0.7478 1.1492 -1.8493 0.5898 6.8635 -0.8357 1.0635 9.0569 -1.6612 -2.2970 -6.6243 3.7858 -0.4655 -7.9445 2.0966 -1.1856 -2.1806 1.0539 1.7827 3.2952 -0.7897 -0.4565 3.4155 -1.7404 1.8083 4.6491 -0.6958 -0.4209 4.8049 -1.6056 -1.8798 -4.4709 2.6027 -0.0216 -5.8155 0.8896 0.3690 -3.5628 -0.2954 0.3142 -1.0792 -1.0468 0.6602 2.6237 -1.4233 -1.6802 -5.9130 2.8406 -0.6761 -6.6343 1.9139 -0.1090 -2.1525 -0.1895 -1.1695 -3.8237 1.5704 -0.2720 -4.4676 0.7410 0.6298 5.4121 -1.0680
1.3654 11.5793 -2.2888 -2.3875 -6.1800 5.0636 -0.4036 -8.6453 0.4605 0.9608 -1.4647 -1.8520 0.5800 10.2549 -2.1852 0.7490 7.9873 -1.9168 0.0824 0.4832 -0.5354 0.7507 1.1477 -1.4604 1.6627 6.8669 -1.4974 1.4817 9.2125 -1.9252 -1.9309 -6.9004 3.9869 -0.9354 -8.1689 1.6724 -0.7669 -2.2438 1.6288 0.2163 3.5579 -0.4511 0.8730 3.4346 -2.6873 0.3355 4.9630 -0.5038 1.1857 4.8050 -2.6817 -1.4395 -4.6604 3.0060 -0.4351 -5.9620 0.6739 0.0426 -3.6189 -0.2680 0.3026 -1.0648 -0.7016 0.5517 2.6872 -1.4826 -1.4721 -6.1364 2.9971 -0.9247 -6.8227 1.7272 -0.1045 -2.1429 0.1367 -0.9366 -3.9431 1.9155 -0.4435 -4.5566 0.7725 1.0403 5.5314 -1.6038
1.4651 11.2161 -2.6437 -2.9408 -5.9429 4.6906 -0.1012 -8.4859 0.5934 1.4985 -1.3917 -1.6638 1.7326 9.7120 -2.7706 1.1910 7.5902 -2.0734 0.2051 0.4183 -0.5779 0.9202 1.1969 -1.6034 0.2493 6.8322 -1.2319 0.9497 9.0025 -1.8638 -2.2290 -6.6699 3.6894 -0.8672 -7.9167 1.6593 -0.8096 -2.0940 1.4292 1.3981 3.3038 -1.1353 -0.2497 3.4797 -1.1978 0.7831 4.5817 -1.8571 0.1193 4.8448 -0.4831 -1.6669 -4.5020 2.7844 -0.2776 -5.7937 0.7144 0.3199 -3.5292 -0.2446 0.6331 -1.0800 -0.7683 0.7855 2.6388 -1.3634 -1.6201 -5.9051 2.7488 -0.9095 -6.5586 1.6903 0.0997 -2.1316 0.0437 -0.9987 -3.7958 1.7578 -0.3244 -4.4169 0.7519 0.6444 5.3968 -1.0752
0.9332 11.4840 -2.2165 -2.5073 -6.0418 5.0110 -0.0270 -8.5602 0.6824 -0.0781 -1.3821 -2.2968 0.3645 10.0765 -2.3543 0.7737 7.8457 -1.9397 0.3849 0.3909 -0.6317 0.2949 1.1697 -1.7929 1.7561 6.8505 -1.2850 1.2396 9.1555 -1.7162 -1.8010 -6.7520 4.0517 -0.6796 -8.0473 1.8199 -1.0157 -2.1673 1.4407 -0.0634 3.5702 -0.8172 1.9635 3.1469 -1.9515 0.2749 4.8742 -0.6252 2.0729 4.5919 -2.1670 -1.4929 -4.5458 2.9637 -0.3595 -5.8797 0.7025 -0.0670 -3.5814 -0.3805 -0.0384 -1.0529 -0.9553 0.7739 2.5918 -1.4677 -1.4060 -6.0070 3.0321 -0.7845 -6.7213 1.8047 -0.3319 -2.1238 -0.0550 -1.0440 -3.8548 1.8278 -0.4878 -4.4908 0.7240 1.3519 5.4605 -1.4082
1.2586 11.3702 -1.9065 -3.1972 -5.7807 4.5805 0.4651 -8.4587 1.3195 0.6289 -1.4966 -2.3716 1.4204 9.9168 -2.4003 1.1518 7.7105 -1.8736 0.2884 0.3941 -0.8421 0.6983 1.0812 -2.0087 0.8761 6.7437 -0.7495 1.0498 9.0424 -1.3746 -2.2614 -6.5391 3.8828 -0.4124 -7.8875 2.2314 -1.2233 -2.1755 0.9896 -0.4934 3.3985 -1.7826 1.8687 3.2119 -1.2087 -0.3834 4.7580 -1.6829 1.9328 4.5918 -1.0841 -1.8773 -4.4206 2.6182 -0.0072 -5.7928 0.9511 0.3459 -3.5801 -0.3116 0.2463 -1.1152 -1.1522 0.6871 2.5641 -1.6127 -1.6580 -5.8517 2.9109 -0.6467 -6.5886 2.0054 -0.1477 -2.1715 -0.2551 -1.1789 -3.7998 1.5611 -0.2799 -4.4561 0.7574 0.8486 5.3311 -1.1911
1.0967 11.5354 -2.5924 -2.4549 -6.1123 5.0131 -0.6769 -8.6069 0.3375 1.3439 -1.4619 -1.6989 0.3304 10.2177 -2.2388 0.5547 7.9574 -1.8709 0.2852 0.4630 -0.4962 1.0876 1.1476 -1.3637 1.5641 6.8659 -1.7219 1.2548 9.2068 -2.0348 -2.1209 -6.8418 3.8757 -1.1271 -8.1277 1.5632 -0.6561 -2.2204 1.6232 0.2164 3.3514 -2.4275 1.1422 3.4753 -0.2288 0.4152 4.7353 -2.5752 1.2235 4.8983 -0.3519 -1.4940 -4.6026 2.9566 -0.4931 -5.9193 0.6245 0.1315 -3.6072 -0.2747 0.5425 -1.0747 -0.6563 0.7648 2.6434 -1.2863 -1.5976 -6.0880 2.9162 -1.0549 -6.7817 1.6488 0.0484 -2.1448 0.1417 -0.9240 -3.9089 1.8840 -0.4312 -4.5307 0.7421 1.0291 5.5314 -1.5081
0.5603 11.1927 -3.2803 -1.8925 -6.0906 5.1492 -1.4014 -8.4688 0.1156 1.0253 -1.3479 -1.9666 0.8736 9.6840 -3.4053 0.9058 7.6841 -2.2835 0.5190 0.4785 -0.3812 0.8901 1.2250 -1.5075 0.9243 7.0350 -0.9207 0.7435 9.0886 -2.1446 -1.7696 -6.7979 3.9614 -1.5623 -7.9926 1.4187 -0.2009 -2.2513 1.6538 2.1044 3.3908 -0.7963 -0.2986 3.4817 -1.0560 2.1449 4.7994 -0.8924 -0.2428 4.8784 -0.9249 -1.0442 -4.6065 3.0242 -0.8367 -5.8222 0.4392 -0.0984 -3.5321 -0.4675 0.5695 -1.0341 -0.7557 0.8794 2.6885 -1.0601 -1.3822 -6.0432 2.9372 -1.2682 -6.6945 1.5421 0.1359 -2.1308 0.0532 -0.6501 -3.9062 1.8697 -0.5450 -4.4810 0.6232 0.9170 5.5729 -0.9449
1.3262 12.0100 -2.6545 -3.0932 -6.7036 4.9339 -0.1177 -8.9560 0.7096 1.1502 -1.4374 -1.5966 0.7033 10.9171 -1.8770 0.5185 8.4542 -1.9287 0.2112 0.4485 -0.3337 0.9844 1.2622 -1.4720 1.4961 7.2132 -1.5179 1.2939 9.5811 -2.3218 -2.3665 -7.2492 3.8967 -0.8928 -8.4625 1.8180 -0.9911 -2.4959 1.6026 1.5176 3.5549 -2.7043 0.2964 3.7489 -0.6243 1.4518 4.9982 -2.8508 0.3398 5.1639 -0.7014 -1.8150 -4.9226 2.9567 -0.3114 -6.2206 0.8263 0.2284 -3.7869 -0.1078 0.4506 -1.1356 -0.5891 0.9103 2.8766 -1.5544 -1.7474 -6.3817 2.9421 -0.9722 -7.0428 1.8449 -0.0780 -2.3524 0.2568 -1.1043 -4.1543 1.8671 -0.4124 -4.7816 0.8903 1.0233 5.8543 -1.7107
1.5159 11.2199 -3.1331 -2.0996 -6.2166 5.0424 -1.1693 -8.4691 0.0157 1.7091 -1.2524 -1.4329 1.9169 9.7523 -2.8954 1.2297 7.6827 -2.1855 0.3105 0.5042 -0.3835 1.1051 1.2868 -1.2122 0.1423 6.9691 -1.4138 0.8673 9.0688 -2.3010 -1.9229 -6.8790 3.8396 -1.4567 -8.0168 1.3056 -0.2297 -2.2663 1.7749 1.0769 3.6065 0.0018 -0.1793 3.3258 -2.0657 1.0058 4.9519 -0.1442 -0.2423 4.7264 -2.2041 -1.1583 -4.6565 3.0181 -0.6867 -5.8150 0.4439 0.0952 -3.4983 -0.3500 0.7544 -0.9737 -0.5127 0.6098 2.7191 -1.0652 -1.4543 -6.0911 2.8715 -1.1980 -6.7125 1.4780 0.2449 -2.1027 0.2149 -0.6651 -3.9240 1.9214 -0.4334 -4.4741 0.6732 0.3120 5.5346 -1.3017
1.2052 11.5946 -2.3738 -2.5393 -6.2012 4.9491 -0.0912 -8.6226 0.5423 0.2781 -1.3411 -2.0940 1.3219 10.1432 -2.8839 1.2969 7.9010 -2.3422 0.1711 0.4733 -0.4060 0.5371 1.1946 -1.5253 0.8949 6.9457 -1.3121 0.9870 9.2382 -1.8536 -1.8743 -6.9161 3.9702 -0.7174 -8.1966 1.6990 -0.9603 -2.2404 1.5267 -0.1562 3.5791 -0.6223 1.8951 3.3543 -1.7425 -0.0927 4.9308 -0.6994 1.9336 4.7787 -1.9607 -1.5001 -4.6536 2.9425 -0.3454 -5.9456 0.6521 -0.0175 -3.5934 -0.2987 0.0604 -1.0324 -0.7912 0.7615 2.6712 -1.2379 -1.4349 -6.1616 2.9630 -0.8167 -6.8374 1.7460 -0.2566 -2.1296 0.0436 -1.0158 -3.9462 1.8423 -0.4535 -4.5552 0.7292 0.9290 5.5682 -1.4622
0.2676 11.4007 -2.8977 -1.1797 -6.4421 5.2042 -2.8756 -7.8898 0.0902 1.9918 -1.4533 -1.5798 -0.3017 10.0504 -2.3780 0.2078 7.8679 -1.9085 0.7262 0.3828 -0.4476 1.5541 1.1168 -1.2189 1.3283 6.9160 -1.5739 0.7536 9.1585 -2.1860 -1.5887 -6.9185 3.9702 -2.5048 -7.6225 1.4075 0.6047 -2.6209 1.7341 0.7201 3.2929 -2.4275 1.2210 3.4520 -0.1192 0.6332 4.6436 -2.5404 1.0726 4.9048 -0.2216 -0.5075 -4.8675 3.0649 -1.4463 -5.5827 0.4492 -0.2953 -3.4291 -0.4197 1.0658 -1.1518 -0.6028 1.1211 2.6313 -1.1889 -1.2847 -6.1068 2.9547 -1.7902 -6.4948 1.5425 0.5047 -2.2535 0.1414 -0.2550 -4.0869 1.8981 -0.6962 -4.4242 0.6586 0.9532 5.5267 -1.4050
0.9135 11.2317 -3.0636 -1.8787 -6.0350 5.1607 -1.3065 -8.4775 0.1687 1.1061 -1.3594 -1.9681 1.0874 9.7117 -3.2512 0.9448 7.6608 -2.2363 0.5085 0.4708 -0.4393 0.9678 1.2076 -1.5605 0.7776 6.9598 -0.9095 0.8394 9.0717 -2.0299 -1.8236 -6.7349 3.9700 -1.4402 -7.9908 1.4739 -0.2747 -2.2073 1.6102 -0.4188 3.4219 -1.4124 1.8752 3.3983 -0.6227 -0.4256 4.7685 -1.3896 1.8669 4.8165 -0.6255 -1.1200 -4.5463 3.0042 -0.7328 -5.8245 0.4776 -0.0157 -3.5423 -0.4643 0.5876 -1.0381 -0.7904 0.8074 2.6770 -1.1406 -1.4035 -5.9901 2.9432 -1.1951 -6.6780 1.5752 0.1440 -2.1344 0.0243 -0.6802 -3.8653 1.8533 -0.4921 -4.4763 0.6289 0.7811 5.5038 -0.9862
1.2417 11.2306 -3.1851 -2.7477 -6.1522 4.7527 0.1731 -8.5538 0.6460 0.2831 -1.2656 -2.1817 1.7237 9.7164 -3.1941 1.3430 7.6646 -2.2307 0.2045 0.4991 -0.4636 0.4653 1.2685 -1.6089 1.0848 7.0188 -0.9070 1.1656 9.0803 -2.0946 -1.9230 -6.8422 3.8717 -0.5238 -8.0758 1.7618 -1.0948 -2.2048 1.3482 -0.5820 3.5897 -1.0056 1.7709 3.3061 -0.7979 -0.4069 4.9770 -1.0403 1.9447 4.7412 -0.7975 -1.6155 -4.6028 2.8139 -0.1972 -5.8662 0.6745 0.0925 -3.5346 -0.3793 0.0456 -0.9852 -0.9023 0.5469 2.7214 -1.0801 -1.4576 -6.0713 2.8881 -0.6914 -6.7392 1.7300 -0.2704 -2.1037 -0.0649 -1.0788 -3.8909 1.7226 -0.3942 -4.4933 0.6807 0.8976 5.5678 -0.9566
1.3224 12.5714 -2.8229 -3.4333 -7.1252 4.6431 0.2356 -9.0776 0.7369 0.9661 -1.4354 -1.4742 1.9858 11.1866 -2.4423 1.5286 8.6822 -1.9713 0.1693 0.4301 -0.0397 0.6323 1.3234 -1.3582 0.4845 7.4465 -2.3338 0.9612 10.0726 -2.4439 -2.4131 -7.6351 3.7468 -0.6379 -8.6488 1.8192 -1.2234 -2.6595 1.6358 1.7566 3.6461 -2.2543 0.1162 3.8800 -0.4468 1.7464 5.0411 -2.5395 0.0954 5.4081 -0.7170 -1.9839 -5.1751 2.8899 -0.1555 -6.3336 0.9197 0.2807 -3.8496 0.0494 0.3462 -1.1760 -0.4201 0.8209 3.0065 -1.2964 -1.7646 -6.6632 2.8480 -0.8433 -7.2207 1.8519 -0.1749 -2.4648 0.3898 -1.2272 -4.3185 1.8805 -0.3770 -4.8924 0.9696 0.7859 5.9809 -1.8202
1.5125 12.5886 -2.7780 -3.0783 -7.1047 4.9296 0.0052 -9.1026 0.5594 1.0640 -1.4284 -1.3992 1.0206 11.1459 -3.1831 0.8405 8.6651 -2.4675 -0.0380 0.4220 -0.1755 0.8710 1.3326 -1.1948 1.5444 7.5164 -1.4879 1.3672 10.1085 -2.1269 -2.2928 -7.6411 3.8358 -0.7898 -8.6711 1.7002 -1.0942 -2.6578 1.7393 1.4467 3.6398 -2.5017 0.0196 3.8809 -0.5222 1.6304 5.0452 -2.6289 0.1890 5.4195 -0.6317 -1.8377 -5.1743 3.0013 -0.2912 -6.3536 0.8121 0.1685 -3.8621 -0.0311 0.3199 -1.1840 -0.4362 0.7266 3.0106 -1.3686 -1.6973 -6.6696 2.8960 -0.9191 -7.2352 1.7928 -0.1816 -2.4738 0.3880 -1.1517 -4.3211 1.9368 -0.4346 -4.9032 0.9243 1.0801 6.0075 -1.5824
1.5255 12.7727 -3.0395 -3.1818 -7.3706 4.8238 0.1428 -9.1603 0.5300 1.0443 -1.4193 -1.2813 1.8825 11.2659 -3.3970 1.5307 8.7628 -2.7310 -0.0313 0.4169 0.0090 0.7624 1.3805 -1.1255 0.7620 7.7629 -1.6270 1.2162 10.2849 -2.4312 -2.3351 -7.8448 3.7317 -0.7146 -8.7702 1.6430 -1.1863 -2.7712 1.8004 1.5104 3.7483 -2.3095 0.0275 3.9645 -0.3485 1.5703 5.1746 -2.5016 0.0683 5.4965 -0.5234 -1.9150 -5.3355 2.9740 -0.2421 -6.4173 0.8277 0.1871 -3.8916 0.0565 0.2992 -1.1988 -0.3048 0.7253 3.0883 -1.2104 -1.7259 -6.8247 2.8389 -0.8865 -7.3366 1.7596 -0.2130 -2.5275 0.4829 -1.2062 -4.4330 1.9575 -0.4281 -4.9670 0.9617 0.8114 6.1495 -1.5659
1.6509 13.3078 -3.5859 -3.0473 -7.9597 5.2425 -0.2815 -9.8653 0.4996 1.3958 -1.5071 -1.0164 2.2347 11.9777 -2.8755 1.7332 9.3472 -2.3231 0.0206 0.4535 -0.0283 0.7157 1.5442 -1.2363 0.5324 8.0992 -2.3976 1.1995 10.7587 -2.9201 -2.5273 -8.2606 3.8122 -0.8750 -9.2504 1.7081 -1.1760 -3.0623 1.9588 1.9560 4.1721 -1.8311 -0.3826 4.2881 -0.9257 1.9926 5.6071 -2.0705 -0.3751 5.8206 -1.2421 -1.9865 -5.6885 3.0595 -0.2905 -6.7971 0.9021 0.2394 -4.0792 0.1607 0.4583 -1.2383 -0.1790 0.7135 3.3614 -1.2816 -1.8509 -7.1965 2.9223 -0.9836 -7.7286 1.8127 -0.1399 -2.6469 0.6059 -1.2212 -4.7447 2.0547 -0.4408 -5.2411 1.0617 0.7355 6.5287 -1.8878
1.5201 13.3624 -3.6691 -3.0704 -8.0202 5.2516 -0.0187 -9.9088 0.6677 1.1190 -1.5299 -1.2158 2.2335 12.0269 -3.1561 1.8243 9.3700 -2.5415 -0.0083 0.4702 0.0152 0.7606 1.5674 -1.1578 0.5918 8.2117 -2.0875 1.1915 10.8253 -2.8880 -2.5475 -8.3237 3.8122 -0.7905 -9.2866 1.7962 -1.3213 -3.0844 1.8739 1.6595 4.0945 -2.3030 0.0205 4.3821 -0.4188 1.7483 5.5691 -2.5288 0.0988 5.9393 -0.6393 -2.0687 -5.7278 3.0057 -0.2444 -6.8202 0.9219 0.2069 -4.1024 0.1373 0.3179 -1.2543 -0.2535 0.7728 3.3973 -1.2411 -1.8702 -7.2378 2.9081 -0.9507 -7.7661 1.8508 -0.2528 -2.6842 0.5590 -1.3041 -4.7765 2.0053 -0.4597 -5.2791 1.0409 0.8419 6.5861 -1.7452
1.7116 13.4026 -3.3525 -3.3364 -8.0243 5.0581 0.0642 -9.8924 0.7224 1.0512 -1.5263 -1.2629 2.0392 11.8704 -3.6598 1.6239 9.2689 -2.8994 -0.0294 0.4706 0.0003 0.7554 1.5761 -1.1255 0.8392 8.2487 -1.7806 1.3298 10.8531 -2.6405 -2.4186 -8.3118 3.8701 -0.7762 -9.2732 1.7810 -1.2653 -3.0809 1.9213 1.5348 4.1000 -2.3601 0.0235 4.3927 -0.3894 1.6268 5.5529 -2.6000 0.1146 5.9403 -0.6359 -1.9770 -5.7176 3.0758 -0.2677 -6.8128 0.9092 0.1636 -4.0879 0.1176 0.2867 -1.2491 -0.2765 0.7225 3.3902 -1.2302 -1.7945 -7.2270 2.9580 -0.9241 -7.7533 1.8522 -0.2550 -2.6667 0.5541 -1.2538 -4.7678 2.0438 -0.4677 -5.2635 1.0468 0.8788 6.5880 -1.6973
0.1293 11.8909 -2.5561 0.2082 -9.2598 1.9716 -4.2189 -6.3612 3.6925 1.5690 -1.1201 -1.5972 0.9237 10.5274 -2.7751 1.1199 8.2818 -2.3640 0.4937 0.5658 -0.1521 1.1962 1.2919 -1.1177 0.4897 7.2033 -1.7225 0.3092 9.5288 -2.1449 -0.8459 -8.4668 2.4608 -3.0605 -6.9769 3.1835 1.0230 -3.8480 0.2463 2.3495 3.7875 -1.4052 0.0584 3.7382 -1.2983 2.1722 5.1888 -1.9757 0.0824 5.2262 -1.1324 0.1346 -6.4066 1.4027 -2.1130 -4.8661 2.1325 -0.9754 -2.7797 0.9789 0.7368 -1.0685 -0.4028 1.1119 2.9432 -1.1551 -0.8650 -7.1434 2.1034 -2.1382 -6.2966 2.5322 0.2837 -2.2816 0.2241 -0.0341 -4.9287 1.0823 -1.0458 -4.2495 1.4161 0.9055 5.8795 -1.6277
2.0043 13.3942 -3.2937 -3.2899 -8.0304 5.0954 0.0647 -9.8988 0.7201 1.0603 -1.5258 -1.2535 1.5959 11.9156 -3.7917 1.2749 9.3068 -3.0048 -0.0958 0.4693 -0.0373 0.8932 1.5846 -1.0338 1.2006 8.2503 -1.6184 1.5729 10.8505 -2.5861 -2.4037 -8.3282 3.8784 -0.7764 -9.2810 1.7940 -1.2719 -3.0791 1.9196 1.2969 4.0876 -2.5221 0.1224 4.3948 -0.3218 1.4217 5.5545 -2.7261 0.1896 5.9504 -0.5571 -1.9715 -5.7216 3.0792 -0.2658 -6.8177 0.9021 0.1582 -4.0976 0.1037 0.2667 -1.2515 -0.2856 0.7249 3.3980 -1.2468 -1.7850 -7.2343 2.9611 -0.9230 -7.7621 1.8586 -0.2687 -2.6783 0.5492 -1.2544 -4.7713 2.0424 -0.4661 -5.2744 1.0360 0.9248 6.5952 -1.6611
0.5652 11.7966 -1.9145 -0.4244 -9.2962 1.5166 -3.2683 -5.7240 4.7023 1.4842 -1.1998 -1.8918 0.4015 10.4016 -1.2683 0.7075 8.1543 -1.5518 0.3499 0.4792 -0.5156 1.0650 1.2125 -1.4619 1.3544 7.1129 -2.3934 0.9728 9.4484 -2.1099 -1.0331 -8.3631 2.3750 -2.6638 -6.5790 3.7794 0.6944 -3.9583 -0.2725 -0.0545 3.5294 -2.2499 1.8019 3.6642 -0.8302 0.0091 4.9337 -2.4947 1.8818 5.1024 -1.0774 -0.1317 -6.4465 1.0643 -1.7803 -4.6128 2.4794 -0.7972 -2.6245 1.0640 0.6433 -1.1313 -0.7463 0.8836 2.8461 -1.4291 -0.9583 -7.0432 2.0470 -1.8800 -6.0496 2.8569 0.2036 -2.3143 -0.0489 -0.1721 -4.9382 0.8288 -0.9359 -4.1161 1.4890 1.0815 5.7155 -1.9465
1.4794 13.7982 -3.0577 -3.3401 -8.1596 5.1328 0.0221 -10.0002 0.7404 1.0125 -1.5872 -1.2431 1.9137 12.3232 -3.5299 1.6720 9.5116 -2.9874 -0.0398 0.4467 0.0193 0.7827 1.5306 -1.1734 0.9492 8.3158 -1.9206 1.2891 11.0969 -2.5931 -2.4250 -8.4312 3.9196 -0.8201 -9.3722 1.8278 -1.2736 -3.1275 1.9584 1.6049 4.0246 -2.4743 0.1126 4.3918 -0.4901 1.7296 5.5090 -2.7568 0.2134 5.9533 -0.7463 -1.9850 -5.7828 3.1223 -0.2868 -6.8867 0.9171 0.1383 -4.1720 0.1348 0.2587 -1.3040 -0.2484 0.7922 3.3773 -1.3285 -1.8061 -7.3112 2.9987 -0.9530 -7.8435 1.8892 -0.2847 -2.7500 0.5957 -1.2694 -4.8345 2.0842 -0.4831 -5.3468 1.0633 0.9963 6.6303 -1.8542
1.3933 13.7631 -3.1818 -3.3877 -8.1443 5.1032 0.0363 -9.9949 0.7606 1.0782 -1.5837 -1.2087 2.1324 12.3361 -3.1785 1.8554 9.5291 -2.6974 -0.0433 0.4457 -0.0021 0.8509 1.5306 -1.1475 0.6909 8.2711 -2.1810 1.1692 11.0502 -2.7657 -2.4557 -8.4150 3.9052 -0.8284 -9.3640 1.8297 -1.2731 -3.1206 1.9515 1.3672 4.0145 -2.6350 0.3037 4.3988 -0.3896 1.5450 5.4991 -2.8793 0.4610 5.9539 -0.5984 -2.0003 -5.7719 3.1080 -0.2804 -6.8825 0.9223 0.1580 -4.1675 0.1422 0.2857 -1.2995 -0.2395 0.8011 3.3720 -1.3416 -1.8245 -7.2987 2.9897 -0.9586 -7.8351 1.8877 -0.2689 -2.7425 0.5982 -1.2720 -4.8267 2.0772 -0.4759 -5.3411 1.0654 0.9406 6.6238 -1.8949
1.2574 13.9939 -3.4625 -3.5898 -8.2810 5.0470 0.0872 -10.0809 0.9171 0.7935 -1.7122 -1.4903 1.9222 12.6821 -2.6698 1.8795 9.7803 -2.3907 0.1107 0.3904 -0.0560 0.7774 1.4827 -1.3426 0.7957 8.3354 -2.2511 1.0950 11.2279 -2.8291 -2.4035 -8.4491 4.0274 -0.7902 -9.4150 1.9632 -1.3087 -3.1580 1.8974 1.6645 4.0182 -2.5803 0.2815 4.3708 -0.5212 1.8268 5.5085 -2.8142 0.4474 5.9377 -0.6730 -1.9990 -5.8039 3.1556 -0.2800 -6.9437 0.9704 0.1168 -4.2444 0.1031 0.2151 -1.3809 -0.3860 0.8758 3.3441 -1.4247 -1.8080 -7.3315 3.0809 -0.9406 -7.8857 1.9795 -0.3131 -2.8029 0.5161 -1.2877 -4.8627 2.0782 -0.4921 -5.4002 1.0678 1.0662 6.6800 -1.9123
2.3178 13.4233 -3.4980 -3.3076 -8.1596 5.0882 0.0880 -9.9560 0.7073 1.0177 -1.5252 -1.2247 1.2784 12.1916 -3.5878 1.0148 9.4682 -2.9892 -0.0671 0.4784 0.0500 0.7458 1.5752 -1.1205 1.2630 8.2921 -1.6686 1.7367 10.9035 -2.6849 -2.4093 -8.4069 3.8796 -0.7658 -9.3360 1.7840 -1.2833 -3.1204 1.9548 1.4914 4.0852 -2.4280 0.0530 4.4294 -0.3978 1.5330 5.5612 -2.7149 0.1436 5.9785 -0.6234 -1.9779 -5.7793 3.0921 -0.2545 -6.8503 0.9028 0.1557 -4.1175 0.1345 0.2520 -1.2584 -0.2297 0.7233 3.4124 -1.2631 -1.7876 -7.2903 2.9656 -0.9156 -7.8123 1.8559 -0.2802 -2.7091 0.5947 -1.2624 -4.8146 2.0667 -0.4649 -5.3085 1.0533 0.9620 6.6453 -1.6988
1.9188 14.0564 -3.1242 -3.3269 -8.2766 5.2533 -0.0723 -10.1077 0.7983 1.0412 -1.7147 -1.3335 1.0475 12.6492 -3.2856 1.0117 9.7657 -2.9408 0.0421 0.3894 -0.0812 0.8275 1.4913 -1.2837 1.4401 8.3882 -1.8050 1.6478 11.2714 -2.5106 -2.4267 -8.4736 4.0038 -0.8837 -9.4391 1.8926 -1.2269 -3.1636 1.9511 1.6496 4.0319 -2.5722 0.1468 4.3783 -0.5870 1.7156 5.5243 -2.8701 0.1883 5.9546 -0.8351 -1.9684 -5.8149 3.1769 -0.3260 -6.9597 0.9378 0.1295 -4.2535 0.1120 0.3027 -1.3856 -0.3256 0.8368 3.3543 -1.4305 -1.8164 -7.3502 3.0668 -0.9916 -7.9041 1.9409 -0.2544 -2.8148 0.5552 -1.2511 -4.8730 2.1013 -0.4926 -5.4119 1.0680 1.0908 6.6880 -1.8727
1.7931 14.2090 -3.1045 -3.6596 -8.4688 5.0538 0.1733 -10.1370 1.0107 1.0348 -1.7603 -1.3000 1.1750 12.9460 -2.3106 0.8775 9.8885 -2.8307 -0.0055 0.3892 -0.2232 0.8447 1.4623 -1.4610 1.5991 8.4159 -2.0167 1.8129 11.3312 -2.7711 -2.4601 -8.5639 4.0266 -0.7424 -9.4712 2.0295 -1.3645 -3.2004 1.9177 1.3275 4.0303 -2.9407 0.4803 4.3787 -0.5868 1.3785 5.5638 -3.2018 0.5788 5.9690 -0.7744 -2.0832 -5.8854 3.1851 -0.2485 -6.9716 1.0670 0.1417 -4.2682 0.2056 0.2627 -1.4077 -0.3465 0.8542 3.3308 -1.6100 -1.8541 -7.4016 3.1106 -0.9284 -7.9401 2.0440 -0.3145 -2.8200 0.5686 -1.3301 -4.9081 2.1157 -0.4943 -5.4278 1.1549 1.1510 6.7174 -2.0117
1.4656 14.4857 -3.0710 -3.3648 -8.6510 5.2479 -0.0184 -10.2273 0.7745 0.9843 -1.7737 -1.2197 1.8436 12.9620 -3.4778 1.5754 10.0203 -2.8936 0.0044 0.3956 -0.0351 0.8333 1.4995 -1.2526 1.1009 8.5842 -2.1396 1.2281 11.6682 -2.5391 -2.4320 -8.7288 3.9745 -0.8520 -9.5725 1.8697 -1.3153 -3.2567 2.0422 1.6865 4.0346 -2.6084 0.2029 4.4195 -0.6021 1.8349 5.5698 -2.9243 0.3211 6.0526 -0.8835 -2.0408 -5.9867 3.2371 -0.3432 -7.0399 0.9865 0.0772 -4.3127 0.2101 0.2477 -1.4239 -0.2353 0.8677 3.3695 -1.4367 -1.8457 -7.5277 3.0826 -0.9961 -8.0306 1.9543 -0.3250 -2.8737 0.6562 -1.3192 -4.9875 2.1744 -0.5417 -5.4934 1.1452 1.1206 6.8249 -2.0367
1.2304 14.4107 -3.8151 -2.5565 -8.8758 5.5738 -0.9910 -10.2274 0.1595 1.1576 -1.7141 -0.9767 1.9829 13.0233 -3.2850 1.6590 10.1800 -2.3725 0.0061 0.4299 0.1366 0.8970 1.5691 -1.0281 0.9086 8.5241 -2.7603 1.0528 11.6052 -3.2344 -2.3635 -8.8213 3.9585 -1.0741 -9.6012 1.5808 -1.0955 -3.3042 2.2697 2.1802 4.1710 -1.8722 -0.2014 4.4299 -0.9972 2.3261 5.7130 -2.1421 -0.1076 6.0549 -1.2914 -1.8606 -6.0739 3.3445 -0.5045 -7.0359 0.8324 0.0031 -4.2865 0.2111 0.3211 -1.3812 -0.0424 0.8951 3.4269 -1.2585 -1.7917 -7.6105 3.0729 -1.1103 -8.0714 1.7984 -0.2508 -2.8604 0.7944 -1.1990 -5.0342 2.2755 -0.5815 -5.4986 1.1279 1.0678 6.8585 -2.0601
1.5111 14.5065 -3.4744 -3.4315 -8.8825 5.1580 0.0793 -10.3372 0.7867 0.9475 -1.7369 -1.1275 2.2272 12.9965 -3.3729 1.9149 10.1354 -2.5235 -0.0445 0.4270 0.0858 0.7409 1.5797 -1.1079 0.8094 8.6240 -2.5841 1.2173 11.7004 -2.9446 -2.4462 -8.8435 3.9127 -0.7767 -9.6216 1.8160 -1.3815 -3.3212 2.0763 1.7187 4.0921 -2.4600 0.0749 4.5493 -0.5829 1.9122 5.6217 -2.7774 0.2591 6.1682 -0.8440 -2.0785 -6.0812 3.2081 -0.2978 -7.0562 0.9830 0.0789 -4.3015 0.2670 0.2011 -1.3935 -0.1345 0.7961 3.4406 -1.3221 -1.8576 -7.6219 3.0491 -0.9520 -8.0888 1.9157 -0.3622 -2.8741 0.7210 -1.3490 -5.0487 2.1777 -0.5360 -5.5161 1.1638 1.0249 6.8836 -2.0650
1.9955 14.6718 -3.4447 -3.3427 -8.9642 5.2973 -0.0188 -10.3952 0.7596 0.9363 -1.8016 -1.1874 1.0594 13.3516 -3.3550 1.1299 10.1904 -3.0690 -0.0311 0.3832 0.0163 0.7731 1.5433 -1.1930 1.6053 8.7302 -2.0416 1.8309 11.8125 -2.7279 -2.4046 -8.8999 3.9937 -0.8397 -9.6781 1.8600 -1.3235 -3.3395 2.0846 1.5634 4.0851 -2.6355 0.2253 4.5416 -0.5266 1.7138 5.6210 -2.9803 0.2793 6.1746 -0.8670 -2.0429 -6.0994 3.2848 -0.3422 -7.1039 0.9833 0.0657 -4.3653 0.2164 0.2184 -1.4558 -0.2057 0.8107 3.4316 -1.3928 -1.8433 -7.6470 3.1180 -0.9879 -8.1253 1.9576 -0.3421 -2.9296 0.6830 -1.3247 -5.0797 2.2099 -0.5470 -5.5722 1.1587 1.1835 6.9198 -1.9968
1.6279 14.8246 -3.3398 -3.3875 -9.0227 5.2405 0.0363 -10.4090 0.7667 0.9487 -1.7965 -1.1291 2.0014 13.3091 -3.7211 1.6844 10.2038 -3.0534 -0.0700 0.3820 0.0638 0.7631 1.5467 -1.1425 1.1061 8.7927 -2.1694 1.3443 11.9349 -2.7339 -2.4246 -8.9685 3.9475 -0.8177 -9.7093 1.8548 -1.3619 -3.3621 2.0861 1.6413 4.0909 -2.5171 0.1244 4.5433 -0.5223 1.8167 5.6277 -2.8723 0.2733 6.2128 -0.8522 -2.0799 -6.1406 3.2647 -0.3223 -7.1235 0.9893 0.0742 -4.3770 0.2436 0.2052 -1.4586 -0.1605 0.7982 3.4484 -1.3384 -1.8562 -7.6954 3.0871 -0.9773 -8.1558 1.9468 -0.3575 -2.9455 0.7091 -1.3505 -5.1080 2.2076 -0.5446 -5.5911 1.1667 1.1044 6.9469 -2.0222
1.6661 14.8721 -3.4029 -3.3878 -9.0790 5.2141 0.0620 -10.4230 0.7579 0.9396 -1.7939 -1.0987 2.0770 13.3083 -3.8206 1.7433 10.2371 -3.1316 -0.0938 0.3805 0.0935 0.7389 1.5589 -1.1033 1.0781 8.8598 -2.1405 1.4049 11.9805 -2.8244 -2.4179 -9.0211 3.9262 -0.7984 -9.7388 1.8413 -1.3782 -3.3828 2.0962 1.6222 4.1154 -2.4780 0.0910 4.5606 -0.4879 1.7996 5.6594 -2.8372 0.2428 6.2522 -0.8251 -2.0861 -6.1767 3.2580 -0.3136 -7.1417 0.9905 0.0695 -4.3876 0.2617 0.1878 -1.4632 -0.1306 0.7713 3.4694 -1.3002 -1.8511 -7.7374 3.0727 -0.9669 -8.1839 1.9388 -0.3727 -2.9602 0.7316 -1.3588 -5.1321 2.2115 -0.5464 -5.6078 1.1748 1.0776 6.9749 -1.9879
1.7004 14.8731 -3.3934 -3.3720 -9.0801 5.2234 0.0366 -10.4250 0.7372 1.0179 -1.7877 -1.0365 2.0635 13.3065 -3.8337 1.5524 10.2231 -3.2771 -0.1978 0.3725 0.0104 0.8586 1.5710 -1.0002 1.3036 8.8700 -1.9758 1.4849 11.9828 -2.7915 -2.4008 -9.0240 3.9364 -0.7985 -9.7401 1.8391 -1.3722 -3.3827 2.1009 1.5557 4.1134 -2.5232 0.0557 4.5623 -0.5067 1.7136 5.6581 -2.8929 0.1809 6.2526 -0.8577 -2.0728 -6.1774 3.2664 -0.3183 -7.1431 0.9852 0.0604 -4.3888 0.2550 0.1798 -1.4633 -0.1350 0.7691 3.4715 -1.2953 -1.8395 -7.7388 3.0785 -0.9652 -8.1847 1.9383 -0.3792 -2.9608 0.7276 -1.3529 -5.1328 2.2151 -0.5489 -5.6078 1.1722 1.0851 6.9802 -1.9670
1.6736 14.8757 -3.4157 -3.3887 -9.0872 5.2071 0.0670 -10.4237 0.7585 0.9374 -1.7910 -1.0906 2.0845 13.3058 -3.8299 1.7947 10.2224 -3.1972 -0.1002 0.3823 0.1011 0.7376 1.5620 -1.0996 1.0428 8.8801 -2.0967 1.4285 11.9808 -2.8573 -2.4160 -9.0343 3.9201 -0.7951 -9.7429 1.8400 -1.3818 -3.3844 2.0972 1.6177 4.1196 -2.4680 0.0844 4.5647 -0.4822 1.7939 5.6724 -2.8265 0.2305 6.2623 -0.8128 -2.0872 -6.1828 3.2548 -0.3113 -7.1439 0.9909 0.0692 -4.3897 0.2654 0.1847 -1.4637 -0.1247 0.7672 3.4745 -1.2940 -1.8489 -7.7462 3.0676 -0.9645 -8.1879 1.9371 -0.3755 -2.9628 0.7359 -1.3603 -5.1356 2.2112 -0.5461 -5.6088 1.1758 1.0619 6.9824 -1.9676
2.1060 14.9310 -3.5275 -3.3629 -9.1769 5.2109 0.0606 -10.4556 0.7409 0.9398 -1.7908 -1.0771 1.6163 13.3868 -4.0087 1.3790 10.3182 -3.3006 -0.1399 0.3686 0.0888 0.7511 1.5778 -1.0483 1.4526 8.9338 -1.9538 1.7202 12.0516 -2.8447 -2.3970 -9.1007 3.9232 -0.7692 -9.7858 1.8452 -1.3950 -3.4170 2.1072 1.4133 4.1474 -2.5714 0.1428 4.6084 -0.3924 1.5829 5.7278 -2.9109 0.2921 6.3001 -0.6896 -2.0879 -6.2310 3.2649 -0.3028 -7.1754 1.0028 0.0671 -4.4199 0.2748 0.1758 -1.4865 -0.1261 0.7235 3.4980 -1.2818 -1.8392 -7.8055 3.0768 -0.9507 -8.2313 1.9466 -0.3802 -2.9931 0.7368 -1.3649 -5.1704 2.2218 -0.5453 -5.6387 1.1864 1.1120 7.0292 -1.8940

$$$$
CHEMBL190322
 OpenBabel02201516223D

 19 21  0  0  1  0  0  0  0  0999 V2000
    1.5315   -1.1319    2.4208 C   0  0  0  0  0
    3.7570   -6.3961   -5.2183 C   0  0  0  0  0
    2.4422   -2.3205    0.1782 O   0  0  0  0  0
    1.1691   -8.1145   -3.6077 C   0  0  0  0  0
    1.7961   -7.7928   -4.9943 C   0  0  0  0  0
    0.8866   -6.6372   -1.5329 C   0  0  0  0  0
    0.7624   -1.2707    1.1817 N   0  0  0  0  0
    0.6033   -2.0109   -1.0254 O   0  0  0  0  0
    0.4299   -4.9309   -1.0929 S   0  0  0  0  0
    2.4606   -2.2432   -4.1374 C   0  0  0  0  0
    1.8195   -1.7032   -3.0374 C   0  0  0  0  0
    2.5257   -3.6117   -4.2935 C   0  0  0  0  0
    0.8627   -6.7073   -3.0591 C   0  0  0  0  0
    2.0913   -5.9317   -3.5566 C   0  0  0  0  0
    2.3187   -6.4053   -4.9194 N   0  0  0  0  0
    1.3103   -1.8833    0.1135 C   0  0  0  0  0
    1.2301   -2.5410   -2.1100 C   0  0  0  0  0
    1.9454   -4.4667   -3.3647 C   0  0  0  0  0
    1.2770   -3.9296   -2.2735 C   0  0  0  0  0
  1  7  1  0  0  0
  2 15  1  0  0  0
  3 16  2  0  0  0
  4  5  1  0  0  0
  4 13  1  0  0  0
  5 15  1  0  0  0
  6  9  1  0  0  0
  6 13  1  0  0  0
  7 16  1  0  0  0
  8 16  1  0  0  0
  8 17  1  0  0  0
  9 19  1  0  0  0
 10 11  2  0  0  0
 10 12  1  0  0  0
 11 17  1  0  0  0
 12 18  2  0  0  0
 13 14  1  0  0  0
 14 15  1  0  0  0
 14 18  1  0  0  0
 17 19  2  0  0  0
 18 19  1  0  0  0
M  CHG  1  16   1
M  END

>  <MOLID> (CHEMBL190322)
CHEMBL190322

>  <SMILES_CANONICAL> (CHEMBL190322)
CN[C+](=O)Oc1cccc2c1SC[C@H]1[C@H]2N(C)CC1	CHEMBL190322

>  <FINGERPRINT> (CHEMBL190322)
0000000000000000000000000000000001000111100100000000001000001000011000000001011000000001000010100000000100010001000001100100000000000000000001000001000000000011010000000010000000000000001100000000001001000000000000000000001000100010000000000001000000000000000001001001000000001010000010000000000000001000010010001100000000001000011100000000000000000000011000000000011110000100000000000001100000100001100010100000001000100001001001000000000000000000000001110000000100000100000000010000000000010000010000000000100000000100000000100000000000000001000000100000000000000000000000000000000000001000010000000011000000000000000000100000001000000001111000000000000000001001000000000001100010000000100111000001000000010000100000000000001100100000000000100101010010100000000110010000000000000010101100000000000011010000000000010000000000000010001000000000000000000010000000001001010000000000000000000000000100000000000000000000001100000000000000000000011100000000001100110011000000000100000000010000000000010001000000010000011000100100

>  <MACCS166> (CHEMBL190322)
000000000000000000000010010000000001000000000000110000000010000000000000001100001010110100001001011100001101010010101001111001110010000111011111110110111101111110111000

>  <OB_MW> (CHEMBL190322)
278.109

>  <OB_logP> (CHEMBL190322)
2.8321

>  <OB_PSA> (CHEMBL190322)
66.87

>  <OB_MR> (CHEMBL190322)
79.6297

>  <OB_ATOMIC_CHARGES> (CHEMBL190322)
0.1984873076 0.0898535206 0.0161531391 0.0198968047 0.0724527653 0.0639700718 0.0241432495 -0.2278778818 -0.1107162982 0.0030655016 0.0435076251 -0.0022822846 0.0313937229 0.0815379565 -0.2690726726 0.6884159652 0.2135945722 0.0010707009 0.0624062342

>  <MCT_HBD> (CHEMBL190322)
1

>  <MCT_HBA> (CHEMBL190322)
4

>  <ENSEMBLE_TOTAL> (CHEMBL190322)
50

>  <ENSEMBLE_RMSD> (CHEMBL190322)
0.000 0.489 0.748 0.819 0.827 0.849 0.899 0.911 0.922 0.923 0.924 0.939 0.943 0.944 0.955 1.034 1.064 1.067 1.069 1.070 1.075 1.082 1.083 1.085 1.090 1.097 1.107 1.108 1.108 1.108 1.108 1.115 1.115 1.115 1.115 1.115 1.120 1.120 1.120 1.124 1.124 1.124 1.142 1.142 1.143 1.162 1.162 1.162 1.162 1.163

>  <ENSEMBLE_COORDS> (CHEMBL190322)
-0.1116 3.0801 4.7539 2.1139 -2.1841 -2.8852 0.7991 1.8915 2.5113 -0.4740 -3.9025 -1.2746 0.1530 -3.5808 -2.6612 -0.7565 -2.4252 0.8002 -0.8807 2.9413 3.5148 -1.0398 2.2011 1.3077 -1.2132 -0.7189 1.2402 0.8175 1.9688 -1.8043 0.1764 2.5088 -0.7043 0.8826 0.6003 -1.9604 -0.7804 -2.4953 -0.7260 0.4482 -1.7197 -1.2235 0.6756 -2.1933 -2.5863 -0.3328 2.3287 2.4466 -0.4130 1.6710 0.2231 0.3023 -0.2547 -1.0316 -0.3661 0.2824 0.0596
-0.3204 4.0735 4.7080 1.8411 -2.2253 -3.3206 0.8573 2.8114 2.8459 -0.6105 -3.9367 -1.6383 0.2371 -3.6406 -2.8568 -0.8500 -2.7460 0.4841 -1.1904 3.3640 3.8087 -0.9406 1.8915 1.7100 -1.0076 -1.0911 1.2641 0.9520 1.8745 -1.6342 0.3225 2.3809 -0.4284 0.9899 0.5230 -1.9532 -0.7431 -2.6554 -1.0613 0.4355 -1.9958 -1.4477 0.5206 -2.3270 -2.8125 -0.3114 2.6944 2.7310 -0.2870 1.5016 0.5173 0.3860 -0.4991 -1.1046 -0.2811 0.0023 0.1884
-0.6388 4.3579 4.1981 1.0998 -1.8764 -3.7208 -0.4123 2.7408 2.6650 -0.4099 -3.9892 -1.5358 0.2405 -3.6060 -2.8056 -0.9154 -2.7011 0.4396 -0.8363 3.2536 3.9676 -0.3593 1.7333 1.9574 -0.9018 -1.1198 1.3323 1.1288 1.7971 -1.5520 0.7167 2.2476 -0.2608 0.9839 0.5379 -1.9302 -0.3508 -2.7612 -0.9071 0.1835 -1.8748 -1.5685 0.5512 -2.3587 -2.7484 -0.4125 2.7402 2.6654 0.0898 1.4143 0.6743 0.3570 -0.5048 -1.1248 -0.1141 -0.0307 0.2546
-0.8859 4.4254 4.7523 1.9287 -2.6009 -3.4269 0.6719 3.6227 2.7689 -0.9108 -3.8761 -1.8719 -0.1687 -3.5626 -3.1502 -0.7013 -2.9360 0.4244 -1.4321 3.4524 3.7671 -0.4678 1.6234 2.1449 -0.4864 -1.3656 1.3801 0.8481 1.8874 -1.6123 0.4212 2.2867 -0.2588 0.8606 0.5194 -2.0231 -0.7845 -2.6806 -1.1027 0.4590 -2.0689 -1.5633 0.5186 -2.3288 -2.9568 -0.3169 2.9498 2.8282 -0.0072 1.3158 0.7295 0.4520 -0.5269 -1.1267 0.0014 -0.1366 0.2973
-0.9086 4.4322 4.7478 1.9166 -2.6012 -3.4360 0.6879 3.6238 2.7687 -0.9092 -3.8828 -1.8680 -0.2113 -3.5464 -3.1730 -0.6781 -2.9517 0.4365 -1.4551 3.4660 3.7503 -0.4665 1.6180 2.1569 -0.4815 -1.3676 1.3810 0.8569 1.8854 -1.6085 0.4273 2.2874 -0.2527 0.8682 0.5155 -2.0193 -0.7757 -2.6846 -1.0924 0.4660 -2.0719 -1.5563 0.5183 -2.3239 -2.9729 -0.3207 2.9559 2.8292 -0.0014 1.3119 0.7318 0.4585 -0.5277 -1.1205 0.0084 -0.1383 0.2973
-0.9648 4.4435 4.7452 1.8915 -2.5976 -3.4606 0.6890 3.6467 2.7510 -0.9235 -3.8988 -1.8750 -0.2959 -3.5257 -3.2183 -0.6361 -2.9827 0.4528 -1.4851 3.5042 3.7152 -0.4555 1.6022 2.1880 -0.4557 -1.3820 1.3814 0.8723 1.8813 -1.5987 0.4414 2.2860 -0.2364 0.8852 0.5055 -2.0090 -0.7544 -2.6975 -1.0600 0.4860 -2.0707 -1.5421 0.5110 -2.3095 -3.0005 -0.3291 2.9699 2.8298 0.0151 1.2958 0.7426 0.4768 -0.5260 -1.1032 0.0319 -0.1446 0.2978
-0.8893 4.4240 4.8923 1.9053 -2.7557 -3.5776 0.5950 3.8428 2.7115 -0.8988 -3.9886 -1.9148 -0.3290 -3.5933 -3.2803 -0.6011 -3.0186 0.4176 -1.4960 3.6341 3.7962 -0.4917 1.6723 2.2263 -0.4956 -1.4130 1.3522 0.9040 1.8864 -1.5424 0.4525 2.2826 -0.1893 0.9189 0.5101 -1.9781 -0.7262 -2.7379 -1.0861 0.5077 -2.0875 -1.5877 0.5222 -2.3502 -3.0603 -0.3808 3.0778 2.8359 -0.0011 1.3015 0.7777 0.4913 -0.5333 -1.1110 0.0125 -0.1537 0.3179
-0.9273 4.4991 4.8578 1.9049 -2.7586 -3.5809 0.6285 3.8263 2.7264 -0.9158 -3.9818 -1.9311 -0.3409 -3.5833 -3.2954 -0.6068 -3.0245 0.4116 -1.5049 3.6214 3.8040 -0.4850 1.6591 2.2397 -0.4760 -1.4232 1.3588 0.8940 1.8893 -1.5389 0.4464 2.2824 -0.1823 0.9135 0.5109 -1.9757 -0.7266 -2.7401 -1.0899 0.5141 -2.0937 -1.5836 0.5304 -2.3597 -3.0732 -0.3699 3.0721 2.8562 0.0032 1.2982 0.7841 0.4955 -0.5354 -1.1079 0.0227 -0.1585 0.3204
-0.9519 4.5341 4.8424 1.9037 -2.7544 -3.5852 0.6275 3.8239 2.7237 -0.9273 -3.9782 -1.9379 -0.3644 -3.5699 -3.3137 -0.5795 -3.0378 0.4235 -1.5145 3.6236 3.7972 -0.4751 1.6461 2.2522 -0.4700 -1.4297 1.3587 0.8983 1.8856 -1.5302 0.4534 2.2794 -0.1696 0.9155 0.5071 -1.9721 -0.7254 -2.7469 -1.0805 0.5124 -2.0941 -1.5823 0.5264 -2.3640 -3.0938 -0.3701 3.0789 2.8662 0.0126 1.2948 0.7883 0.4979 -0.5340 -1.1041 0.0304 -0.1642 0.3173
-0.9567 4.5352 4.8411 1.9021 -2.7539 -3.5864 0.6275 3.8244 2.7221 -0.9280 -3.9783 -1.9377 -0.3687 -3.5676 -3.3166 -0.5758 -3.0391 0.4255 -1.5167 3.6252 3.7947 -0.4727 1.6449 2.2538 -0.4684 -1.4306 1.3589 0.8992 1.8850 -1.5290 0.4546 2.2788 -0.1681 0.9158 0.5064 -1.9713 -0.7247 -2.7477 -1.0789 0.5124 -2.0940 -1.5819 0.5252 -2.3632 -3.0956 -0.3701 3.0797 2.8666 0.0142 1.2940 0.7891 0.4987 -0.5340 -1.1032 0.0321 -0.1652 0.3169
-0.9551 4.5350 4.8420 1.9043 -2.7525 -3.5866 0.6239 3.8265 2.7190 -0.9306 -3.9776 -1.9386 -0.3681 -3.5681 -3.3169 -0.5788 -3.0393 0.4252 -1.5172 3.6258 3.7938 -0.4703 1.6438 2.2552 -0.4651 -1.4317 1.3594 0.8979 1.8848 -1.5287 0.4544 2.2786 -0.1670 0.9147 0.5061 -1.9713 -0.7260 -2.7478 -1.0780 0.5129 -2.0939 -1.5815 0.5261 -2.3636 -3.0962 -0.3715 3.0807 2.8662 0.0156 1.2932 0.7896 0.4989 -0.5337 -1.1025 0.0340 -0.1663 0.3167
-0.8555 4.3170 4.6682 1.7316 -2.3048 -3.5012 -1.0478 3.8580 2.1125 -0.8027 -3.9043 -1.7621 -0.0852 -3.5844 -3.0505 -0.6397 -2.9036 0.4931 -0.2211 3.1016 4.1896 -0.4031 1.6203 2.0766 -0.5884 -1.2991 1.3920 1.0735 1.8241 -1.5582 0.6193 2.2616 -0.2429 1.0203 0.4719 -1.9572 -0.7394 -2.6801 -1.0388 0.4537 -2.0619 -1.5229 0.4106 -2.2946 -2.9198 -0.5504 2.9298 2.6788 0.0894 1.3342 0.7218 0.5066 -0.5542 -1.0803 0.0283 -0.1317 0.3012
-0.8949 4.2994 4.6453 1.6655 -2.2601 -3.5378 -1.0749 3.8380 2.1055 -0.7903 -3.9043 -1.7367 -0.0445 -3.5990 -3.0138 -0.6210 -2.8927 0.5023 -0.2557 3.0850 4.1896 -0.3406 1.6345 2.0602 -0.5789 -1.2906 1.4008 1.0872 1.8180 -1.5523 0.6564 2.2560 -0.2403 1.0188 0.4771 -1.9588 -0.7353 -2.6774 -1.0343 0.4320 -2.0514 -1.5332 0.3667 -2.2916 -2.9161 -0.5483 2.9149 2.6682 0.1199 1.3397 0.7305 0.4991 -0.5605 -1.0846 0.0390 -0.1349 0.3056
-0.7303 4.4536 5.0227 2.0039 -2.9242 -3.5585 0.4202 4.0629 2.5820 -0.8939 -4.0503 -1.9866 -0.3031 -3.6516 -3.3591 -0.6590 -3.0324 0.3762 -1.4380 3.6294 4.0155 -0.5135 1.7192 2.2356 -0.5122 -1.4269 1.3379 0.8938 1.8906 -1.5313 0.4388 2.3004 -0.1802 0.9106 0.5084 -1.9700 -0.7387 -2.7711 -1.1435 0.5050 -2.1073 -1.6044 0.5994 -2.4210 -3.1096 -0.4346 3.1639 2.8555 -0.0218 1.3311 0.7941 0.4785 -0.5272 -1.1019 -0.0051 -0.1475 0.3257
-0.9070 4.2400 4.7725 0.2366 -1.9305 -4.1373 0.7833 3.4450 2.9010 -0.0143 -4.1318 -1.4382 0.5190 -3.7862 -2.7989 -1.2345 -2.7527 0.2274 -1.4538 3.5162 3.5867 -0.4460 1.6268 2.0942 -1.1977 -1.1332 1.1148 1.3626 1.7387 -1.4384 0.8984 2.1753 -0.1148 1.0438 0.4626 -1.9543 -0.0167 -2.8900 -0.7330 -0.1119 -1.9003 -1.7738 0.7073 -2.3856 -2.8196 -0.2657 2.9139 2.7962 0.0929 1.3175 0.7310 0.2513 -0.4742 -1.1975 -0.2478 -0.0516 0.1821
-1.0880 4.5214 4.8630 1.9677 -2.8066 -3.5640 -0.6427 4.2115 2.1870 -0.8824 -4.0260 -1.9454 -0.3005 -3.6387 -3.3166 -0.6360 -3.0263 0.4060 -0.2969 3.3657 4.4085 -0.4969 1.7015 2.2254 -0.5265 -1.4294 1.3299 0.9720 1.8653 -1.5218 0.5034 2.2772 -0.1807 0.9756 0.4895 -1.9550 -0.7234 -2.7592 -1.1052 0.5213 -2.1056 -1.5820 0.5748 -2.3948 -3.0928 -0.4670 3.1374 2.8290 0.0139 1.3103 0.7868 0.5148 -0.5387 -1.0938 0.0167 -0.1546 0.3217
-0.8450 4.8801 4.9495 1.6855 -2.4100 -4.2957 0.3014 4.2039 2.5808 -0.6293 -4.4416 -1.8278 0.0684 -4.1701 -3.2501 -0.8959 -3.0754 0.4816 -1.1896 3.5056 4.3723 -0.6240 1.7927 2.2415 -0.9002 -1.3355 1.1899 1.2447 1.9847 -1.3136 0.6772 2.3720 -0.0065 1.1553 0.5663 -1.8604 -0.7769 -3.0386 -1.1515 0.3830 -2.1400 -1.7165 0.3886 -2.6842 -3.3311 -0.4306 3.2305 2.9929 0.0020 1.3953 0.8196 0.4886 -0.5117 -1.1233 -0.1032 -0.1241 0.2483
-0.8062 4.8584 4.9628 1.7211 -2.4376 -4.2482 0.0502 4.2854 2.4547 -0.6322 -4.4189 -1.8271 0.0746 -4.1534 -3.2350 -0.8957 -3.0619 0.4618 -0.9501 3.4146 4.4854 -0.6625 1.7946 2.2184 -0.9238 -1.3269 1.1736 1.2547 1.9720 -1.3147 0.6697 2.3633 -0.0160 1.1710 0.5556 -1.8534 -0.7736 -3.0192 -1.1588 0.3938 -2.1358 -1.7024 0.4101 -2.6829 -3.3094 -0.4603 3.2312 2.9738 -0.0176 1.3945 0.8088 0.4933 -0.5145 -1.1193 -0.1166 -0.1185 0.2448
-0.8453 4.8304 4.9357 1.3388 -2.4018 -4.3434 0.1312 4.2223 2.5246 -0.5435 -4.3826 -1.7827 0.1747 -4.1549 -3.1091 -1.0682 -2.9381 0.2527 -1.0452 3.4278 4.4185 -0.5382 1.7317 2.2530 -0.9692 -1.3148 1.1234 1.2729 1.9448 -1.3311 0.7415 2.2980 -0.0044 1.0990 0.5731 -1.8812 -0.4606 -3.0259 -1.0552 0.2265 -2.0104 -1.7964 0.6275 -2.7443 -3.1069 -0.4196 3.1782 2.9666 0.0257 1.3587 0.8465 0.4094 -0.4975 -1.1713 -0.1572 -0.0947 0.2607
-0.8901 4.8998 4.9263 1.7031 -2.4225 -4.2822 0.3278 4.1925 2.5948 -0.6626 -4.4292 -1.8469 0.0159 -4.1505 -3.2769 -0.8556 -3.0880 0.4934 -1.2459 3.5336 4.3383 -0.5880 1.7757 2.2670 -0.8569 -1.3530 1.2161 1.2303 1.9897 -1.3198 0.6792 2.3711 -0.0039 1.1429 0.5707 -1.8660 -0.7822 -3.0377 -1.1476 0.3910 -2.1507 -1.7181 0.3827 -2.6719 -3.3418 -0.4286 3.2307 2.9961 0.0221 1.3866 0.8309 0.4954 -0.5137 -1.1199 -0.0805 -0.1332 0.2604
-0.8404 4.8459 4.9343 1.3748 -2.3530 -4.3742 0.1412 4.2289 2.5163 -0.5533 -4.3923 -1.7814 0.1827 -4.1545 -3.1298 -1.1002 -2.9503 0.2944 -1.0524 3.4239 4.4249 -0.5429 1.7331 2.2607 -0.9755 -1.3068 1.1294 1.2743 1.9402 -1.3206 0.7457 2.3058 0.0036 1.1078 0.5706 -1.8886 -0.4832 -3.0596 -1.0408 0.2152 -2.0273 -1.7852 0.6309 -2.7721 -3.1300 -0.4221 3.1898 2.9797 0.0326 1.3635 0.8378 0.4164 -0.4849 -1.1737 -0.1516 -0.1008 0.2433
-0.8427 4.8555 4.9417 1.3918 -2.3372 -4.3934 0.1477 4.2399 2.5103 -0.5636 -4.4209 -1.7808 0.1867 -4.1773 -3.1519 -1.1207 -2.9677 0.3213 -1.0534 3.4361 4.4308 -0.5441 1.7445 2.2685 -0.9787 -1.3031 1.1350 1.2773 1.9547 -1.3128 0.7486 2.3234 0.0117 1.1098 0.5741 -1.8863 -0.4960 -3.0885 -1.0352 0.2114 -2.0467 -1.7893 0.6473 -2.7718 -3.1606 -0.4224 3.2009 2.9858 0.0360 1.3712 0.8358 0.4136 -0.4840 -1.1658 -0.1487 -0.1032 0.2353
-0.8428 4.8559 4.9420 1.3974 -2.3289 -4.3976 0.1485 4.2396 2.5095 -0.5647 -4.4218 -1.7809 0.1864 -4.1796 -3.1533 -1.1231 -2.9680 0.3237 -1.0546 3.4344 4.4314 -0.5448 1.7444 2.2694 -0.9794 -1.3024 1.1352 1.2772 1.9536 -1.3112 0.7486 2.3238 0.0134 1.1109 0.5745 -1.8867 -0.4980 -3.0906 -1.0339 0.2121 -2.0461 -1.7904 0.6431 -2.7811 -3.1578 -0.4218 3.2047 2.9872 0.0371 1.3721 0.8345 0.4156 -0.4812 -1.1677 -0.1477 -0.1032 0.2331
-0.8318 4.9108 4.9557 1.7378 -2.4026 -4.3158 0.1996 4.2565 2.5170 -0.6307 -4.4887 -1.8483 0.1132 -4.2206 -3.2616 -0.9616 -3.0831 0.4878 -1.0469 3.4894 4.4621 -0.6486 1.8138 2.2503 -0.9335 -1.3345 1.1921 1.2467 1.9966 -1.2971 0.6715 2.3884 0.0086 1.1584 0.5765 -1.8514 -0.7983 -3.0712 -1.1689 0.3767 -2.1545 -1.7318 0.4267 -2.7138 -3.3493 -0.4318 3.2588 3.0051 -0.0114 1.4091 0.8241 0.4831 -0.5083 -1.1240 -0.1191 -0.1223 0.2456
-0.8419 4.8686 4.9452 1.4130 -2.3154 -4.4141 0.1522 4.2456 2.5069 -0.5683 -4.4427 -1.7901 0.1900 -4.1975 -3.1720 -1.1398 -2.9825 0.3429 -1.0535 3.4513 4.4358 -0.5463 1.7535 2.2761 -0.9841 -1.3017 1.1408 1.2793 1.9620 -1.3040 0.7505 2.3351 0.0207 1.1119 0.5767 -1.8823 -0.5075 -3.1133 -1.0321 0.2093 -2.0615 -1.7938 0.6528 -2.7834 -3.1772 -0.4216 3.2152 2.9920 0.0381 1.3775 0.8364 0.4135 -0.4817 -1.1619 -0.1477 -0.1058 0.2306
-0.8441 4.8745 4.9510 1.4254 -2.3097 -4.4325 0.1561 4.2584 2.5069 -0.5732 -4.4617 -1.7932 0.1914 -4.2149 -3.1853 -1.1526 -2.9896 0.3625 -1.0584 3.4496 4.4419 -0.5442 1.7659 2.2786 -0.9867 -1.3010 1.1449 1.2809 1.9725 -1.2981 0.7512 2.3461 0.0276 1.1151 0.5820 -1.8830 -0.5155 -3.1315 -1.0281 0.2088 -2.0720 -1.7993 0.6574 -2.7927 -3.1903 -0.4214 3.2250 2.9966 0.0406 1.3855 0.8363 0.4150 -0.4811 -1.1635 -0.1459 -0.1054 0.2269
-0.8417 4.8924 4.9532 1.4423 -2.3009 -4.4515 0.1603 4.2659 2.5056 -0.5769 -4.4862 -1.8070 0.1950 -4.2338 -3.2047 -1.1675 -3.0051 0.3733 -1.0553 3.4810 4.4497 -0.5494 1.7712 2.2894 -0.9959 -1.3045 1.1538 1.2843 1.9810 -1.2898 0.7531 2.3553 0.0358 1.1176 0.5869 -1.8768 -0.5241 -3.1531 -1.0296 0.2083 -2.0870 -1.8073 0.6678 -2.7970 -3.2101 -0.4209 3.2382 3.0023 0.0385 1.3891 0.8438 0.4136 -0.4831 -1.1592 -0.1491 -0.1103 0.2291
-0.8413 4.8935 4.9530 1.4442 -2.2978 -4.4523 0.1608 4.2657 2.5051 -0.5775 -4.4874 -1.8075 0.1954 -4.2340 -3.2060 -1.1682 -3.0046 0.3738 -1.0564 3.4793 4.4505 -0.5499 1.7712 2.2900 -0.9962 -1.3044 1.1537 1.2842 1.9803 -1.2889 0.7527 2.3548 0.0370 1.1181 0.5871 -1.8767 -0.5231 -3.1532 -1.0324 0.2096 -2.0848 -1.8084 0.6637 -2.8045 -3.2065 -0.4201 3.2415 3.0028 0.0388 1.3897 0.8437 0.4145 -0.4823 -1.1604 -0.1492 -0.1101 0.2293
-0.8411 4.8940 4.9528 1.4450 -2.2963 -4.4524 0.1615 4.2657 2.5039 -0.5773 -4.4878 -1.8088 0.1944 -4.2355 -3.2051 -1.1683 -3.0040 0.3738 -1.0571 3.4783 4.4509 -0.5501 1.7713 2.2905 -0.9963 -1.3040 1.1536 1.2841 1.9797 -1.2883 0.7525 2.3544 0.0377 1.1184 0.5872 -1.8769 -0.5225 -3.1528 -1.0338 0.2105 -2.0833 -1.8094 0.6615 -2.8080 -3.2043 -0.4208 3.2419 3.0045 0.0390 1.3901 0.8435 0.4156 -0.4813 -1.1616 -0.1490 -0.1096 0.2292
-0.8411 4.8943 4.9529 1.4455 -2.2951 -4.4522 0.1620 4.2655 2.5031 -0.5770 -4.4884 -1.8101 0.1937 -4.2366 -3.2045 -1.1683 -3.0035 0.3735 -1.0577 3.4773 4.4513 -0.5503 1.7716 2.2909 -0.9964 -1.3038 1.1534 1.2838 1.9788 -1.2877 0.7522 2.3539 0.0384 1.1187 0.5872 -1.8769 -0.5220 -3.1527 -1.0350 0.2110 -2.0822 -1.8097 0.6602 -2.8100 -3.2028 -0.4204 3.2435 3.0047 0.0391 1.3902 0.8436 0.4162 -0.4806 -1.1623 -0.1490 -0.1092 0.2294
-0.8409 4.8947 4.9528 1.4458 -2.2942 -4.4519 0.1624 4.2654 2.5024 -0.5767 -4.4888 -1.8113 0.1929 -4.2377 -3.2039 -1.1683 -3.0030 0.3734 -1.0581 3.4768 4.4514 -0.5504 1.7718 2.2913 -0.9965 -1.3036 1.1534 1.2835 1.9780 -1.2872 0.7520 2.3535 0.0389 1.1188 0.5871 -1.8768 -0.5215 -3.1525 -1.0361 0.2114 -2.0815 -1.8099 0.6593 -2.8113 -3.2017 -0.4206 3.2438 3.0054 0.0392 1.3904 0.8436 0.4167 -0.4801 -1.1629 -0.1489 -0.1089 0.2293
-0.8395 4.9069 4.9542 1.4567 -2.2930 -4.4675 0.1636 4.2688 2.5024 -0.5803 -4.5054 -1.8167 0.1973 -4.2484 -3.2187 -1.1795 -3.0151 0.3839 -1.0554 3.4968 4.4550 -0.5520 1.7792 2.2970 -1.0010 -1.3078 1.1562 1.2853 1.9851 -1.2815 0.7531 2.3613 0.0445 1.1192 0.5897 -1.8718 -0.5296 -3.1694 -1.0326 0.2099 -2.0921 -1.8131 0.6714 -2.8073 -3.2209 -0.4207 3.2517 3.0088 0.0376 1.3930 0.8484 0.4146 -0.4824 -1.1585 -0.1508 -0.1115 0.2309
-0.8393 4.9074 4.9543 1.4574 -2.2915 -4.4675 0.1638 4.2684 2.5020 -0.5804 -4.5057 -1.8174 0.1972 -4.2488 -3.2189 -1.1794 -3.0147 0.3834 -1.0563 3.4954 4.4557 -0.5523 1.7791 2.2975 -1.0013 -1.3078 1.1563 1.2851 1.9844 -1.2810 0.7528 2.3609 0.0453 1.1195 0.5901 -1.8717 -0.5287 -3.1689 -1.0345 0.2110 -2.0903 -1.8141 0.6684 -2.8122 -3.2180 -0.4198 3.2538 3.0085 0.0379 1.3934 0.8483 0.4153 -0.4818 -1.1594 -0.1508 -0.1113 0.2311
-0.8390 4.9080 4.9540 1.4577 -2.2905 -4.4673 0.1643 4.2683 2.5013 -0.5801 -4.5063 -1.8189 0.1968 -4.2495 -3.2188 -1.1795 -3.0141 0.3832 -1.0568 3.4946 4.4560 -0.5525 1.7793 2.2980 -1.0015 -1.3075 1.1565 1.2849 1.9837 -1.2804 0.7525 2.3604 0.0458 1.1198 0.5901 -1.8718 -0.5279 -3.1687 -1.0359 0.2115 -2.0890 -1.8145 0.6669 -2.8148 -3.2159 -0.4198 3.2544 3.0089 0.0380 1.3937 0.8484 0.4157 -0.4814 -1.1600 -0.1509 -0.1110 0.2313
-0.8386 4.9090 4.9536 1.4582 -2.2897 -4.4669 0.1647 4.2682 2.5006 -0.5798 -4.5066 -1.8200 0.1962 -4.2504 -3.2182 -1.1793 -3.0136 0.3827 -1.0573 3.4940 4.4562 -0.5529 1.7794 2.2985 -1.0017 -1.3073 1.1564 1.2848 1.9830 -1.2800 0.7523 2.3600 0.0464 1.1200 0.5900 -1.8717 -0.5274 -3.1681 -1.0373 0.2120 -2.0882 -1.8147 0.6655 -2.8164 -3.2147 -0.4201 3.2544 3.0095 0.0380 1.3939 0.8485 0.4163 -0.4809 -1.1605 -0.1509 -0.1107 0.2314
-0.8382 4.9096 4.9531 1.4584 -2.2892 -4.4664 0.1652 4.2681 2.4999 -0.5796 -4.5069 -1.8212 0.1957 -4.2511 -3.2178 -1.1793 -3.0130 0.3824 -1.0577 3.4934 4.4565 -0.5531 1.7795 2.2989 -1.0018 -1.3071 1.1564 1.2846 1.9823 -1.2795 0.7521 2.3593 0.0469 1.1202 0.5900 -1.8717 -0.5270 -3.1678 -1.0383 0.2122 -2.0874 -1.8147 0.6648 -2.8173 -3.2137 -0.4202 3.2546 3.0099 0.0379 1.3939 0.8488 0.4167 -0.4806 -1.1609 -0.1508 -0.1104 0.2315
-0.8382 4.9171 4.9553 1.4665 -2.2903 -4.4809 0.1650 4.2701 2.5003 -0.5836 -4.5200 -1.8210 0.1987 -4.2605 -3.2284 -1.1874 -3.0177 0.3951 -1.0584 3.4977 4.4581 -0.5521 1.7883 2.3015 -1.0048 -1.3082 1.1608 1.2857 1.9900 -1.2756 0.7529 2.3677 0.0509 1.1211 0.5937 -1.8698 -0.5337 -3.1809 -1.0331 0.2110 -2.0972 -1.8176 0.6747 -2.8146 -3.2301 -0.4211 3.2588 3.0127 0.0387 1.3983 0.8497 0.4156 -0.4819 -1.1590 -0.1506 -0.1104 0.2309
-0.8385 4.9169 4.9557 1.4669 -2.2893 -4.4806 0.1653 4.2699 2.4998 -0.5834 -4.5200 -1.8218 0.1985 -4.2609 -3.2284 -1.1872 -3.0171 0.3946 -1.0585 3.4975 4.4579 -0.5528 1.7876 2.3024 -1.0049 -1.3079 1.1609 1.2855 1.9895 -1.2752 0.7527 2.3672 0.0513 1.1214 0.5939 -1.8699 -0.5328 -3.1803 -1.0349 0.2120 -2.0954 -1.8185 0.6721 -2.8185 -3.2273 -0.4206 3.2599 3.0125 0.0387 1.3986 0.8499 0.4162 -0.4814 -1.1598 -0.1508 -0.1102 0.2313
-0.8385 4.9170 4.9558 1.4670 -2.2887 -4.4802 0.1656 4.2698 2.4994 -0.5830 -4.5204 -1.8231 0.1981 -4.2615 -3.2279 -1.1870 -3.0167 0.3940 -1.0584 3.4978 4.4577 -0.5534 1.7871 2.3031 -1.0050 -1.3076 1.1609 1.2854 1.9889 -1.2748 0.7526 2.3667 0.0516 1.1216 0.5940 -1.8699 -0.5320 -3.1797 -1.0363 0.2125 -2.0943 -1.8188 0.6705 -2.8206 -3.2255 -0.4205 3.2605 3.0126 0.0386 1.3987 0.8502 0.4168 -0.4810 -1.1605 -0.1509 -0.1100 0.2316
-0.7980 4.3914 4.8261 0.2211 -2.0993 -4.2245 -0.6321 4.0436 2.1439 0.0350 -4.1876 -1.4375 0.8141 -3.8582 -2.7131 -1.3427 -2.7738 0.1301 -0.2015 3.1269 4.2989 -0.5602 1.6326 2.1423 -1.3599 -1.1145 0.9667 1.5161 1.6893 -1.3039 0.9757 2.1273 0.0094 1.1666 0.4208 -1.8797 -0.0822 -2.8975 -0.7499 -0.1271 -1.8869 -1.8218 0.7778 -2.3879 -2.8807 -0.4502 3.0079 2.7741 0.0628 1.2800 0.7649 0.2774 -0.4657 -1.1936 -0.2929 -0.0483 0.1484
-0.8004 4.3923 4.8262 0.2224 -2.0977 -4.2257 -0.6256 4.0449 2.1441 0.0354 -4.1909 -1.4378 0.8176 -3.8606 -2.7133 -1.3450 -2.7750 0.1291 -0.1980 3.1291 4.2986 -0.5629 1.6324 2.1432 -1.3624 -1.1149 0.9637 1.5163 1.6887 -1.3026 0.9749 2.1269 0.0112 1.1659 0.4199 -1.8787 -0.0849 -2.8972 -0.7485 -0.1283 -1.8852 -1.8218 0.7795 -2.3873 -2.8818 -0.4479 3.0086 2.7752 0.0613 1.2790 0.7648 0.2765 -0.4646 -1.1932 -0.2942 -0.0483 0.1470
-0.8211 4.4015 4.7963 0.1899 -2.0932 -4.2237 -0.6581 4.0283 2.1512 0.0316 -4.1669 -1.4401 0.7576 -3.8312 -2.7339 -1.3007 -2.7730 0.1534 -0.2444 3.1178 4.2945 -0.5287 1.6327 2.1363 -1.3373 -1.1148 0.9899 1.5219 1.6885 -1.3063 0.9875 2.1228 0.0039 1.1762 0.4228 -1.8791 -0.0499 -2.9018 -0.7564 -0.1140 -1.8994 -1.8178 0.7545 -2.3903 -2.8749 -0.4586 3.0004 2.7673 0.0825 1.2847 0.7701 0.2904 -0.4766 -1.1943 -0.2793 -0.0524 0.1634
-0.8762 4.8563 4.9201 1.0620 -2.2713 -4.5118 0.0003 4.2723 2.4431 -0.4872 -4.4167 -1.7435 0.3391 -4.1988 -3.0627 -1.3793 -2.8611 0.1600 -0.9263 3.3888 4.4850 -0.4255 1.7008 2.3156 -1.0464 -1.2876 1.1005 1.3026 1.9367 -1.3058 0.8285 2.2862 0.0458 1.0484 0.5846 -1.9163 -0.2252 -3.1421 -0.9027 0.0198 -1.9866 -1.8811 0.9358 -2.8312 -3.0128 -0.4044 3.1851 2.9903 0.0889 1.3442 0.8606 0.3280 -0.4657 -1.2073 -0.1829 -0.0939 0.2229
-0.8344 4.8580 4.9460 1.1124 -2.2516 -4.5256 0.0087 4.2799 2.4409 -0.4914 -4.4440 -1.7503 0.3267 -4.2198 -3.0908 -1.3926 -2.8822 0.1882 -0.9283 3.4028 4.4902 -0.4588 1.7192 2.3114 -1.0697 -1.2787 1.0952 1.3090 1.9450 -1.2937 0.8223 2.3032 0.0520 1.0617 0.5869 -1.9087 -0.2331 -3.1709 -0.8963 0.0263 -2.0038 -1.8832 0.9371 -2.8500 -3.0287 -0.4113 3.2032 2.9938 0.0758 1.3575 0.8529 0.3312 -0.4619 -1.2028 -0.1915 -0.0928 0.2096
-1.8456 3.4675 4.1516 -0.0853 -1.7549 -3.8047 -1.5262 2.4772 1.6996 -0.2811 -3.9086 -1.2761 0.1257 -3.5435 -2.6566 -0.1280 -2.6604 0.7144 -0.5199 3.3158 3.6187 0.5498 1.8046 2.0583 -0.3198 -1.0047 1.6310 1.2610 1.9151 -1.6113 1.1589 2.3163 -0.2887 0.8968 0.6348 -1.9889 -0.5076 -2.5604 -0.7049 -0.0091 -1.7707 -1.4883 0.5209 -2.2215 -2.5748 -0.5562 2.4897 2.3840 0.6379 1.4055 0.7493 0.3685 -0.4527 -1.0325 0.2595 0.0512 0.4198
-0.8247 4.8963 4.9599 1.1832 -2.2290 -4.5744 0.0137 4.3069 2.4332 -0.5146 -4.5084 -1.7840 0.3189 -4.2737 -3.1464 -1.4198 -2.9224 0.2417 -0.9089 3.4412 4.5202 -0.4868 1.7531 2.3233 -1.0931 -1.2804 1.1062 1.3163 1.9696 -1.2691 0.8168 2.3349 0.0732 1.0776 0.5986 -1.8935 -0.2596 -3.2324 -0.8978 0.0398 -2.0392 -1.8963 0.9500 -2.8780 -3.0743 -0.4132 3.2427 3.0109 0.0647 1.3785 0.8593 0.3379 -0.4616 -1.1971 -0.1982 -0.0966 0.2050
-0.8316 4.4988 4.8964 0.2658 -2.2606 -4.3453 -0.5058 4.1655 2.1996 0.0214 -4.2654 -1.4979 0.8923 -3.9501 -2.7293 -1.3955 -2.7901 0.0442 -0.2235 3.2315 4.3992 -0.5831 1.6802 2.2010 -1.3776 -1.1548 0.9383 1.4860 1.7089 -1.2586 0.9383 2.1326 0.0535 1.1518 0.4370 -1.8629 -0.1183 -2.9292 -0.8018 -0.1169 -1.9040 -1.8754 0.8249 -2.4544 -2.9521 -0.4189 3.0913 2.8427 0.0345 1.2883 0.7991 0.2737 -0.4669 -1.2091 -0.3174 -0.0584 0.1583
-0.8746 4.4822 4.8841 0.2549 -2.2616 -4.3448 -0.5033 4.1677 2.2008 0.0198 -4.2639 -1.4973 0.8771 -3.9480 -2.7334 -1.3800 -2.7923 0.0548 -0.2199 3.2351 4.3975 -0.5676 1.6822 2.2033 -1.3675 -1.1548 0.9461 1.4858 1.7108 -1.2637 0.9433 2.1332 0.0493 1.1500 0.4390 -1.8658 -0.1097 -2.9276 -0.8018 -0.1176 -1.9039 -1.8746 0.8156 -2.4493 -2.9485 -0.4096 3.0890 2.8389 0.0415 1.2881 0.8009 0.2743 -0.4682 -1.2097 -0.3124 -0.0578 0.1638
-0.8340 4.4995 4.8958 0.2656 -2.2595 -4.3459 -0.5018 4.1649 2.2002 0.0228 -4.2660 -1.4968 0.8944 -3.9510 -2.7285 -1.3987 -2.7893 0.0431 -0.2210 3.2310 4.3994 -0.5847 1.6799 2.2007 -1.3784 -1.1549 0.9373 1.4854 1.7084 -1.2579 0.9372 2.1328 0.0542 1.1517 0.4363 -1.8626 -0.1199 -2.9296 -0.8009 -0.1169 -1.9036 -1.8752 0.8257 -2.4544 -2.9535 -0.4172 3.0919 2.8441 0.0337 1.2885 0.7985 0.2735 -0.4663 -1.2090 -0.3175 -0.0586 0.1568
-0.8715 4.4804 4.8872 0.2562 -2.2615 -4.3446 -0.5013 4.1677 2.2001 0.0223 -4.2646 -1.4958 0.8836 -3.9490 -2.7312 -1.3850 -2.7908 0.0524 -0.2162 3.2353 4.3977 -0.5708 1.6819 2.2030 -1.3700 -1.1540 0.9443 1.4851 1.7105 -1.2631 0.9419 2.1334 0.0504 1.1492 0.4385 -1.8659 -0.1132 -2.9280 -0.8009 -0.1189 -1.9035 -1.8746 0.8178 -2.4520 -2.9516 -0.4089 3.0914 2.8407 0.0403 1.2890 0.7999 0.2731 -0.4671 -1.2097 -0.3136 -0.0574 0.1617

$$$$
CHEMBL374981
 OpenBabel02201516223D

 41 44  0  0  0  0  0  0  0  0999 V2000
   -2.3169    1.2877   -1.5125 C   0  0  0  0  0
    0.5865   -4.6261   -4.3313 C   0  0  0  0  0
   -3.1464   -3.3539   -1.7425 C   0  0  0  0  0
    8.1147    1.4463  -15.1738 O   0  0  0  0  0
    0.5827    1.4631   -5.3253 O   0  0  0  0  0
    4.5253   -0.4820  -10.1616 C   0  0  0  0  0
    5.2285    0.3685  -11.2214 C   0  0  0  0  0
    3.7069    0.4251   -9.2405 C   0  0  0  0  0
    6.0469   -0.5386  -12.1424 C   0  0  0  0  0
    3.0036   -0.4253   -8.1807 C   0  0  0  0  0
    6.7501    0.3118  -13.2022 C   0  0  0  0  0
   13.6822    1.8402  -19.7590 C   0  0  0  0  0
   13.4670    1.9718  -18.2468 C   0  0  0  0  0
    2.1852    0.4817   -7.2597 C   0  0  0  0  0
    7.5686   -0.5952  -14.1233 C   0  0  0  0  0
   13.5655    0.3593  -20.1281 C   0  0  0  0  0
   11.9967    1.6931  -17.9436 C   0  0  0  0  0
    1.5119   -0.3326   -6.2449 N   0  0  0  0  0
    9.0435   -0.3464  -16.0934 N   0  0  0  0  0
    9.6874    0.4323  -17.0638 N   0  0  0  0  0
   -2.1840   -0.1335   -1.4437 O   0  0  0  0  0
   -0.2557   -4.0676   -3.3210 O   0  0  0  0  0
   -1.8425   -2.8622   -1.4258 O   0  0  0  0  0
    9.0434   -3.7576  -19.7889 C   0  0  0  0  0
    8.3196   -3.1564  -18.7611 C   0  0  0  0  0
   10.1935   -3.1989  -20.2555 C   0  0  0  0  0
    8.7428   -1.9929  -18.1943 C   0  0  0  0  0
   11.8420   -1.3906  -20.1443 C   0  0  0  0  0
   -0.7600    0.0448   -3.3356 C   0  0  0  0  0
    0.2187   -1.9512   -4.2878 C   0  0  0  0  0
    8.2612    0.2424  -15.1672 C   0  0  0  0  0
    0.7296    0.2562   -5.3187 C   0  0  0  0  0
   12.2823   -0.2198  -19.5875 C   0  0  0  0  0
   11.5623    0.3931  -18.5712 C   0  0  0  0  0
   10.3965   -0.1833  -18.0930 C   0  0  0  0  0
   -1.3946   -0.7258   -2.3794 C   0  0  0  0  0
   -0.4181   -2.7173   -3.3295 C   0  0  0  0  0
    0.0511   -0.5643   -4.2962 C   0  0  0  0  0
   10.6612   -1.9980  -19.6942 C   0  0  0  0  0
   -1.2217   -2.1073   -2.3700 C   0  0  0  0  0
    9.9242   -1.3877  -18.6499 C   0  0  0  0  0
  1 21  1  0  0  0
  2 22  1  0  0  0
  3 23  1  0  0  0
  4 31  2  0  0  0
  5 32  2  0  0  0
  6  7  1  0  0  0
  6  8  1  0  0  0
  7  9  1  0  0  0
  8 10  1  0  0  0
  9 11  1  0  0  0
 10 14  1  0  0  0
 11 15  1  0  0  0
 12 13  1  0  0  0
 12 16  1  0  0  0
 13 17  1  0  0  0
 14 18  1  0  0  0
 15 31  1  0  0  0
 16 33  1  0  0  0
 17 34  1  0  0  0
 18 32  1  0  0  0
 19 20  1  0  0  0
 19 31  1  0  0  0
 20 35  1  0  0  0
 21 36  1  0  0  0
 22 37  1  0  0  0
 23 40  1  0  0  0
 24 25  1  0  0  0
 24 26  2  0  0  0
 25 27  2  0  0  0
 26 39  1  0  0  0
 27 41  1  0  0  0
 28 33  2  0  0  0
 28 39  1  0  0  0
 29 36  1  0  0  0
 29 38  2  0  0  0
 30 37  2  0  0  0
 30 38  1  0  0  0
 32 38  1  0  0  0
 33 34  1  0  0  0
 34 35  2  0  0  0
 35 41  1  0  0  0
 36 40  2  0  0  0
 37 40  1  0  0  0
 39 41  2  0  0  0
M  END

>  <MOLID> (CHEMBL374981)
CHEMBL374981

>  <SMILES_CANONICAL> (CHEMBL374981)
COc1c(OC)cc(cc1OC)C(=O)NCCCCCCCCC(=O)NNc1c2CCCCc2cc2c1cccc2	CHEMBL374981

>  <FINGERPRINT> (CHEMBL374981)
0000000000000001000000000000011101100101000000000001100000001000001000000001100000000001100010110000000000000001000001100000000000000001000000000001000000000000000000000000000000000000000000000100001100000100000000100010000000100010000000000001000000000001000000000100000001001000000000000000000000001100000010001100000000001000001100000000000000001100010000000000000110110000000000000000010000000000110010000000101000000000001000000000100000000000001000010000001001001100110000010010000000001000100000000100100000000000000000000000001000000000000000100000000000000000000001000000011000001000001000000000110000000000001000100000101000000001110000000000000000000001000000000001110001000110101001100001100001100100000000000100100000000000000000000111010010000000000111000000000000000100000000000000000011000000000000000000000000000001000001000010001000000000000000001001000000000000000001000000000000000001010000000000001100000010000000000000111000000000000010111010000000000110000000000000000000100000000000000000011100001000

>  <MACCS166> (CHEMBL374981)
000000000000000000000000010000000000000000001000010100000000000000011001000100000100000011111110001100011001011010001100000111111111101101011111111011111111111110111000

>  <OB_MW> (CHEMBL374981)
561.32

>  <OB_logP> (CHEMBL374981)
7.203

>  <OB_PSA> (CHEMBL374981)
97.92

>  <OB_MR> (CHEMBL374981)
164.137

>  <OB_ATOMIC_CHARGES> (CHEMBL374981)
0.2526227066 0.2526227066 0.2527710053 -0.2716546667 -0.2683661054 5.77565e-05 1.34111e-05 0.001820432 0.000504062 0.0234401636 0.0096719808 0.0050124056 0.005055882 0.1154721747 0.0885286737 0.0260873454 0.0274125125 -0.2016666013 -0.0905201711 -0.1256846289 -0.468261033 -0.468261033 -0.4653829442 9.363e-07 4.24532e-05 3.19156e-05 0.0013303771 -0.0044933447 0.0448200483 0.0448200483 0.2606430596 0.264982756 -0.0248481893 -0.0093843 0.0848567213 0.1755901969 0.1755901969 0.0612701748 0.0009673066 0.2060567649 0.0164268434

>  <MCT_HBD> (CHEMBL374981)
3

>  <MCT_HBA> (CHEMBL374981)
8

>  <ENSEMBLE_TOTAL> (CHEMBL374981)
50

>  <ENSEMBLE_RMSD> (CHEMBL374981)
0.000 0.491 0.544 0.572 0.611 0.612 0.615 0.635 0.643 0.651 0.657 0.657 0.657 0.658 0.658 0.658 0.658 0.658 0.659 0.659 0.659 0.660 0.663 0.664 0.674 0.685 0.687 0.687 0.704 0.887 1.128 1.638 2.002 2.042 2.796 2.985 3.011 3.965 4.036 4.141 5.350 5.366 5.468 6.037 6.078 6.652 6.657 6.928 6.993 7.109

>  <ENSEMBLE_COORDS> (CHEMBL374981)
-7.6813 2.0218 9.8902 -4.7779 -3.8920 7.0714 -8.5108 -2.6198 9.6602 2.7503 2.1804 -3.7711 -4.7817 2.1972 6.0774 -0.8391 0.2521 1.2411 -0.1359 1.1026 0.1813 -1.6575 1.1592 2.1622 0.6825 0.1955 -0.7397 -2.3608 0.3088 3.2220 1.3857 1.0459 -1.7995 8.3178 2.5743 -8.3563 8.1026 2.7059 -6.8441 -3.1792 1.2158 4.1430 2.2042 0.1389 -2.7206 8.2011 1.0934 -8.7254 6.6323 2.4272 -6.5409 -3.8525 0.4015 5.1578 3.6791 0.3877 -4.6907 4.3230 1.1664 -5.6611 -7.5484 0.6006 9.9590 -5.6201 -3.3335 8.0817 -7.2069 -2.1281 9.9769 3.6790 -3.0235 -8.3862 2.9552 -2.4223 -7.3584 4.8291 -2.4648 -8.8528 3.3784 -1.2588 -6.7916 6.4776 -0.6565 -8.7416 -6.1244 0.7789 8.0671 -5.1457 -1.2171 7.1149 2.8968 0.9765 -3.7645 -4.6348 0.9903 6.0840 6.9179 0.5143 -8.1848 6.1979 1.1272 -7.1685 5.0321 0.5508 -6.6903 -6.7590 0.0083 9.0233 -5.7825 -1.9832 8.0732 -5.3133 0.1698 7.1065 5.2968 -1.2639 -8.2915 -6.5861 -1.3732 9.0327 4.5598 -0.6536 -7.2472
-7.2396 1.9327 10.2318 -5.8630 -3.7242 6.3584 -8.7464 -2.4332 9.4999 3.2149 2.0196 -3.4237 -4.3485 2.0804 6.4101 -0.8029 0.2039 1.2698 0.0780 1.0435 0.3536 -1.4173 1.1007 2.3530 0.7022 0.1479 -0.7235 -2.3308 0.2813 3.2450 1.5543 0.9827 -1.6639 7.9060 2.7781 -8.6754 7.2649 3.3102 -7.5264 -2.9264 1.1621 4.3414 2.2042 0.0945 -2.7149 7.6412 1.4908 -9.1823 6.3133 2.5851 -6.8161 -3.8649 0.3367 5.1370 3.6743 0.2899 -4.7270 4.4962 1.1025 -5.5174 -7.1732 0.5451 10.2581 -6.3196 -3.2085 7.6131 -7.4631 -2.0108 9.8321 4.1960 -3.3406 -8.0375 3.5857 -2.8271 -6.9215 5.0871 -2.6179 -8.6880 3.8583 -1.5524 -6.4545 6.3575 -0.5341 -8.8875 -5.8691 0.7615 8.2663 -5.4324 -1.1451 6.9283 3.0571 0.9013 -3.6358 -4.4838 0.9621 6.1976 6.6495 0.7340 -8.4458 6.0167 1.2444 -7.3195 5.0889 0.4848 -6.6475 -6.6037 0.0055 9.1543 -6.1701 -1.9024 7.8191 -5.2827 0.1747 7.1367 5.3974 -1.3286 -8.2193 -6.7738 -1.3228 8.9149 4.7677 -0.8081 -7.0930
-7.5466 2.2666 10.0280 -5.9263 -3.8563 6.7185 -7.4958 -2.3654 10.9015 2.6909 2.0505 -3.7801 -4.2512 2.1215 6.5202 -0.7112 0.0517 1.3782 -0.0462 0.9183 0.3029 -1.5114 0.9376 2.3309 0.7514 0.0293 -0.6496 -2.1539 0.0581 3.4138 1.4111 0.8991 -1.7275 8.3299 2.8483 -8.4086 7.5912 3.3400 -7.3299 -2.9676 0.9343 4.3664 2.2267 0.0177 -2.6606 8.0332 1.6169 -8.9598 6.4851 2.5706 -6.7484 -3.5550 0.0925 5.4140 3.6713 0.2158 -4.9570 4.2937 1.0562 -5.6245 -7.6985 0.9077 10.0793 -6.5673 -3.3554 7.8260 -8.0299 -1.8892 9.7884 4.2669 -3.2578 -8.6333 3.4913 -2.8328 -7.5605 5.2890 -2.4821 -9.0999 3.7321 -1.6000 -6.9274 6.6122 -0.4378 -8.9822 -6.0364 0.8849 8.2354 -5.4762 -1.2476 7.1122 2.8713 0.8936 -3.7970 -4.3431 0.8579 6.3535 6.9026 0.8110 -8.3967 6.1494 1.3027 -7.2979 5.0186 0.4933 -6.6983 -6.9765 0.2483 9.1178 -6.3872 -1.9908 7.9400 -5.3031 0.1547 7.2474 5.5583 -1.2314 -8.4926 -7.1360 -1.2524 9.0168 4.7431 -0.7802 -7.3596
-7.0224 1.7696 10.3859 -5.9600 -3.5968 6.2763 -8.5100 -2.6278 9.6163 3.2847 2.0025 -3.3759 -4.1787 1.9442 6.5252 -0.8453 0.2382 1.2350 0.1068 1.0525 0.3695 -1.3814 1.1056 2.3767 0.6263 0.1928 -0.7818 -2.3046 0.2734 3.2592 1.5833 1.0120 -1.6463 7.8185 2.7915 -8.7272 7.1606 3.3052 -7.5748 -2.8785 1.1116 4.3755 2.0961 0.1378 -2.7991 7.5808 1.5048 -9.2040 6.2336 2.5231 -6.8721 -3.7797 0.2254 5.1973 3.6039 0.2648 -4.7810 4.5022 1.1292 -5.5084 -7.2612 0.4400 10.1668 -6.4659 -3.1287 7.4879 -7.5868 -1.6232 9.7550 4.2946 -3.3626 -7.9347 3.6794 -2.8488 -6.8262 5.1710 -2.6081 -8.6062 3.9280 -1.5464 -6.3937 6.3315 -0.5553 -8.8669 -5.8547 0.7453 8.2728 -5.4608 -1.1386 6.9010 3.0299 0.9158 -3.6619 -4.4013 0.8847 6.2604 6.6175 0.7052 -8.4485 5.9779 1.2386 -7.3374 5.0986 0.5055 -6.6468 -6.6641 -0.0167 9.0859 -6.2711 -1.8506 7.7302 -5.2689 0.1543 7.1354 5.4436 -1.3081 -8.1826 -6.8871 -1.1757 8.8247 4.8139 -0.7866 -7.0612
-7.1267 1.8061 10.3067 -5.9571 -3.5936 6.2788 -8.6102 -2.5874 9.5381 3.3460 1.9778 -3.3302 -4.1374 1.9218 6.5551 -0.8162 0.2257 1.2567 0.1861 1.0203 0.4280 -1.2814 1.0659 2.4504 0.6841 0.1679 -0.7395 -2.2656 0.2545 3.2881 1.6210 0.9954 -1.6186 7.7328 2.8309 -8.7898 7.0981 3.3314 -7.6208 -2.7821 1.0715 4.4466 2.0923 0.1375 -2.8014 7.5028 1.5380 -9.2610 6.1763 2.5461 -6.9146 -3.8051 0.2324 5.1777 3.5708 0.2774 -4.8054 4.5038 1.1290 -5.5064 -7.2321 0.4323 10.1880 -6.5495 -3.0987 7.4268 -7.6196 -1.6011 9.7321 4.3326 -3.3763 -7.9061 3.7031 -2.8578 -6.8071 5.2032 -2.6182 -8.5823 3.9683 -1.5659 -6.3636 6.3134 -0.5515 -8.8800 -5.8332 0.7373 8.2884 -5.4865 -1.1279 6.8822 3.0645 0.8998 -3.6364 -4.3622 0.8694 6.2896 6.5711 0.7290 -8.4827 5.9522 1.2495 -7.3560 5.0885 0.5091 -6.6549 -6.6548 -0.0202 9.0921 -6.3066 -1.8360 7.7042 -5.2508 0.1473 7.1488 5.4509 -1.3127 -8.1770 -6.9113 -1.1614 8.8074 4.8263 -0.7944 -7.0520
-7.0349 1.7964 10.3787 -5.8849 -3.6572 6.3349 -8.0697 -2.7879 9.9533 3.2642 2.0126 -3.3915 -4.0614 1.9097 6.6162 -0.8530 0.2401 1.2286 0.1001 1.0543 0.3654 -1.3709 1.1044 2.3851 0.6501 0.1842 -0.7649 -2.3189 0.2836 3.2483 1.5817 1.0116 -1.6465 7.7645 2.8185 -8.7712 7.1435 3.3229 -7.5934 -2.8621 1.1231 4.3874 2.1152 0.1367 -2.7854 7.5199 1.5250 -9.2550 6.2520 2.5320 -6.8583 -3.7099 0.2185 5.2492 3.6359 0.2601 -4.7550 4.5767 1.1034 -5.4560 -7.4425 0.5193 10.0327 -6.6365 -3.0659 7.3680 -7.8668 -1.5597 9.5469 4.2683 -3.3608 -7.9581 3.6628 -2.8495 -6.8422 5.1452 -2.6131 -8.6267 3.9840 -1.5799 -6.3551 6.3014 -0.5473 -8.8912 -5.8695 0.7477 8.2632 -5.4621 -1.1284 6.9023 3.0467 0.9179 -3.6495 -4.2681 0.8430 6.3577 6.5836 0.7219 -8.4763 5.9909 1.2378 -7.3298 5.1315 0.4903 -6.6207 -6.7479 0.0169 9.0256 -6.3659 -1.8144 7.6655 -5.1982 0.1266 7.1873 5.4401 -1.3128 -8.1858 -6.9744 -1.1759 8.7592 4.8391 -0.8054 -7.0425
-6.8466 1.7111 10.5158 -6.1899 -3.5091 6.1084 -8.2750 -2.7298 9.7939 3.2391 2.0201 -3.4095 -4.1939 1.9528 6.5151 -0.8679 0.2460 1.2180 0.0797 1.0667 0.3504 -1.4005 1.1123 2.3619 0.6185 0.1965 -0.7880 -2.3360 0.2864 3.2359 1.5569 1.0216 -1.6648 7.7751 2.8141 -8.7610 7.1527 3.3109 -7.5834 -2.8846 1.1203 4.3703 2.1450 0.1187 -2.7630 7.5268 1.5262 -9.2463 6.2559 2.5192 -6.8560 -3.7952 0.2360 5.1861 3.6001 0.2694 -4.7829 4.5817 1.1006 -5.4501 -7.3230 0.4692 10.1212 -6.4801 -3.1279 7.4796 -7.6465 -1.6020 9.7142 4.3171 -3.3735 -7.9207 3.7382 -2.8782 -6.7848 5.1591 -2.6077 -8.6159 3.9912 -1.5770 -6.3489 6.3060 -0.5460 -8.8859 -5.8776 0.7532 8.2558 -5.4646 -1.1387 6.8987 3.0340 0.9132 -3.6589 -4.3835 0.8844 6.2733 6.5923 0.7207 -8.4673 5.9968 1.2326 -7.3239 5.1392 0.4893 -6.6159 -6.6919 -0.0061 9.0655 -6.2866 -1.8481 7.7207 -5.2553 0.1480 7.1449 5.4429 -1.3106 -8.1831 -6.8979 -1.1806 8.8167 4.8480 -0.8041 -7.0361
-6.8584 1.7162 10.5072 -6.1877 -3.5109 6.1098 -8.2240 -2.7466 9.8318 3.2460 2.0170 -3.4045 -4.1547 1.9381 6.5445 -0.8734 0.2483 1.2139 0.0866 1.0636 0.3554 -1.3914 1.1088 2.3687 0.5939 0.2059 -0.8060 -2.3439 0.2904 3.2299 1.5599 1.0199 -1.6626 7.7486 2.8257 -8.7809 7.1148 3.3289 -7.6118 -2.8764 1.1183 4.3766 2.1119 0.1323 -2.7874 7.5211 1.5280 -9.2508 6.2341 2.5300 -6.8723 -3.7922 0.2364 5.1882 3.6430 0.2504 -4.7516 4.5672 1.1064 -5.4607 -7.2861 0.4545 10.1484 -6.5756 -3.0935 7.4104 -7.6816 -1.5903 9.6881 4.3404 -3.3837 -7.9039 3.7433 -2.8797 -6.7814 5.1868 -2.6196 -8.5957 4.0050 -1.5824 -6.3387 6.3169 -0.5515 -8.8779 -5.8405 0.7398 8.2837 -5.4935 -1.1282 6.8776 3.0435 0.9098 -3.6521 -4.3574 0.8749 6.2927 6.5905 0.7209 -8.4688 5.9921 1.2349 -7.3277 5.1380 0.4896 -6.6168 -6.6769 -0.0121 9.0765 -6.3375 -1.8293 7.6839 -5.2405 0.1415 7.1556 5.4580 -1.3177 -8.1720 -6.9061 -1.1778 8.8105 4.8562 -0.8072 -7.0300
-7.1026 1.8059 10.3259 -6.0574 -3.5600 6.2055 -8.5802 -2.5984 9.5642 3.3843 1.9607 -3.3021 -4.0715 1.9012 6.6050 -0.8069 0.2212 1.2631 0.1681 1.0318 0.4155 -1.2738 1.0601 2.4553 0.6348 0.1888 -0.7758 -2.2630 0.2562 3.2898 1.6035 1.0023 -1.6312 7.6969 2.8467 -8.8176 7.0455 3.3564 -7.6610 -2.7597 1.0655 4.4625 2.0870 0.1412 -2.8056 7.4871 1.5430 -9.2745 6.1543 2.5596 -6.9307 -3.8256 0.2474 5.1632 3.5913 0.2696 -4.7897 4.4989 1.1302 -5.5109 -7.2200 0.4253 10.1969 -6.5918 -3.0836 7.3973 -7.6403 -1.6035 9.7169 4.3716 -3.3964 -7.8789 3.7453 -2.8798 -6.7780 5.2253 -2.6326 -8.5664 3.9967 -1.5775 -6.3436 6.3156 -0.5501 -8.8788 -5.8104 0.7270 8.3056 -5.5018 -1.1221 6.8711 3.0776 0.8948 -3.6268 -4.3422 0.8655 6.3039 6.5579 0.7329 -8.4927 5.9422 1.2547 -7.3640 5.0945 0.5069 -6.6494 -6.6499 -0.0214 9.0962 -6.3329 -1.8280 7.6862 -5.2368 0.1404 7.1589 5.4640 -1.3176 -8.1675 -6.9164 -1.1653 8.8035 4.8405 -0.7991 -7.0412
-6.9640 1.8210 10.4355 -6.0563 -3.6359 6.2164 -8.5336 -2.5677 9.6401 3.2944 1.9921 -3.3690 -4.0650 1.9672 6.6198 -0.8295 0.2214 1.2469 0.1505 1.0194 0.4041 -1.3484 1.0845 2.4024 0.6197 0.1848 -0.7854 -2.2898 0.2743 3.2710 1.6215 0.9719 -1.6162 7.6781 2.8688 -8.8449 7.0645 3.3899 -7.6699 -2.8148 1.1267 4.4241 2.1139 0.1343 -2.7840 7.4630 1.5559 -9.3103 6.2070 2.6089 -6.8938 -3.7576 0.2829 5.2135 3.5861 0.2992 -4.7878 4.5726 1.0932 -5.4618 -7.1954 0.4908 10.2269 -6.6345 -3.0872 7.3819 -7.6981 -1.8314 9.6681 4.3770 -3.4203 -7.8950 3.7985 -2.9173 -6.7595 5.1988 -2.6595 -8.5977 4.0281 -1.6150 -6.3281 6.3139 -0.5435 -8.8976 -5.8211 0.7431 8.2995 -5.5263 -1.0877 6.8588 3.0422 0.9208 -3.6489 -4.3417 0.9095 6.3049 6.5826 0.7442 -8.4869 5.9235 1.2776 -7.3856 5.1516 0.4675 -6.6032 -6.6502 0.0015 9.1086 -6.3589 -1.8218 7.6793 -5.2468 0.1609 7.1581 5.4281 -1.3329 -8.1938 -6.9866 -1.2381 8.7540 4.9027 -0.8537 -6.9946
-6.9532 1.7761 10.4395 -6.0751 -3.6037 6.2001 -8.3218 -2.6610 9.7822 3.3089 1.9951 -3.3587 -4.0688 1.9269 6.6117 -0.8254 0.2258 1.2478 0.1405 1.0340 0.3953 -1.3278 1.0864 2.4168 0.6433 0.1822 -0.7696 -2.2925 0.2758 3.2664 1.6125 0.9947 -1.6240 7.6965 2.8513 -8.8262 7.0559 3.3673 -7.6647 -2.8023 1.1124 4.4320 2.1114 0.1343 -2.7883 7.4868 1.5392 -9.2850 6.1775 2.5873 -6.9149 -3.7445 0.2548 5.2244 3.6241 0.2709 -4.7632 4.5237 1.1310 -5.4964 -7.2849 0.4742 10.1518 -6.6846 -3.0543 7.3382 -7.7815 -1.6744 9.6081 4.3824 -3.4137 -7.8796 3.7746 -2.9010 -6.7645 5.2145 -2.6530 -8.5774 4.0064 -1.5963 -6.3398 6.3148 -0.5570 -8.8826 -5.8146 0.7338 8.3042 -5.5175 -1.0975 6.8636 3.0618 0.9100 -3.6382 -4.3025 0.8739 6.3322 6.5663 0.7328 -8.4931 5.9522 1.2596 -7.3615 5.1048 0.5050 -6.6394 -6.6877 -0.0015 9.0722 -6.3925 -1.8044 7.6501 -5.2237 0.1465 7.1698 5.4631 -1.3349 -8.1678 -6.9674 -1.2138 8.7647 4.8461 -0.8150 -7.0363
-6.9532 1.7726 10.4392 -6.0733 -3.5965 6.1992 -8.3217 -2.6662 9.7775 3.3091 1.9938 -3.3583 -4.0696 1.9202 6.6107 -0.8255 0.2269 1.2486 0.1416 1.0376 0.3965 -1.3276 1.0841 2.4163 0.6442 0.1846 -0.7693 -2.2927 0.2758 3.2669 1.6128 0.9946 -1.6238 7.6958 2.8486 -8.8248 7.0550 3.3646 -7.6627 -2.8033 1.1060 4.4308 2.1121 0.1370 -2.7878 7.4861 1.5385 -9.2836 6.1754 2.5773 -6.9160 -3.7465 0.2461 5.2225 3.6238 0.2700 -4.7633 4.5216 1.1209 -5.4986 -7.2869 0.4643 10.1497 -6.6837 -3.0502 7.3373 -7.7731 -1.6390 9.6160 4.3803 -3.4120 -7.8787 3.7739 -2.8974 -6.7640 5.2145 -2.6471 -8.5764 4.0065 -1.5922 -6.3391 6.3159 -0.5507 -8.8814 -5.8150 0.7293 8.3031 -5.5188 -1.1030 6.8617 3.0625 0.9119 -3.6376 -4.3040 0.8666 6.3309 6.5652 0.7319 -8.4918 5.9515 1.2580 -7.3607 5.1049 0.5042 -6.6398 -6.6882 -0.0060 9.0706 -6.3924 -1.8047 7.6487 -5.2242 0.1420 7.1683 5.4644 -1.3282 -8.1672 -6.9641 -1.2011 8.7669 4.8466 -0.8128 -7.0366
-6.9492 1.8104 10.4479 -6.0812 -3.6380 6.1974 -8.3264 -2.6332 9.8096 3.3035 1.9852 -3.3615 -4.0633 1.9668 6.6210 -0.8288 0.2197 1.2481 0.1344 1.0180 0.3918 -1.3334 1.0715 2.4131 0.6410 0.1754 -0.7706 -2.2952 0.2738 3.2678 1.6037 0.9679 -1.6295 7.6992 2.8654 -8.8277 7.0659 3.3948 -7.6701 -2.8034 1.1154 4.4318 2.1099 0.1347 -2.7860 7.4905 1.5416 -9.2912 6.1865 2.6309 -6.9080 -3.7360 0.2856 5.2289 3.6283 0.2943 -4.7557 4.5166 1.1053 -5.5032 -7.2696 0.5738 10.1843 -6.6874 -3.0660 7.3421 -7.8239 -1.8484 9.5703 4.3929 -3.4247 -7.8904 3.7841 -2.9117 -6.7752 5.2198 -2.6728 -8.5881 4.0082 -1.6102 -6.3452 6.3325 -0.5394 -8.8941 -5.8145 0.7424 8.3058 -5.5181 -1.1017 6.8638 3.0580 0.9068 -3.6367 -4.3001 0.8885 6.3342 6.5769 0.7622 -8.4916 5.9545 1.2642 -7.3642 5.0986 0.4860 -6.6420 -6.6850 0.0402 9.0907 -6.3936 -1.8069 7.6537 -5.2259 0.1534 7.1754 5.4625 -1.3503 -8.1713 -6.9754 -1.2376 8.7640 4.8428 -0.8332 -7.0391
-6.9461 1.8134 10.4482 -6.0797 -3.6228 6.1990 -8.3262 -2.6618 9.7902 3.3057 1.9878 -3.3607 -4.0633 1.9606 6.6207 -0.8281 0.2187 1.2469 0.1377 1.0281 0.3944 -1.3305 1.0803 2.4156 0.6417 0.1786 -0.7697 -2.2931 0.2778 3.2678 1.6084 0.9838 -1.6258 7.6989 2.8591 -8.8294 7.0647 3.3881 -7.6687 -2.8007 1.1238 4.4347 2.1114 0.1377 -2.7865 7.4896 1.5453 -9.2892 6.1819 2.6147 -6.9125 -3.7392 0.2732 5.2269 3.6256 0.2821 -4.7593 4.5201 1.1209 -5.4999 -7.2772 0.5173 10.1647 -6.6888 -3.0633 7.3420 -7.8057 -1.7653 9.5910 4.3872 -3.4252 -7.8858 3.7796 -2.9087 -6.7725 5.2182 -2.6662 -8.5819 4.0088 -1.6055 -6.3425 6.3199 -0.5562 -8.8869 -5.8140 0.7381 8.3044 -5.5158 -1.0905 6.8661 3.0611 0.9152 -3.6354 -4.2995 0.8906 6.3361 6.5700 0.7407 -8.4951 5.9535 1.2649 -7.3633 5.1005 0.4933 -6.6412 -6.6887 0.0064 9.0773 -6.3950 -1.8103 7.6519 -5.2250 0.1505 7.1732 5.4626 -1.3459 -8.1685 -6.9750 -1.2400 8.7611 4.8446 -0.8292 -7.0377
-6.9544 1.7620 10.4379 -6.0681 -3.5781 6.1984 -8.3247 -2.6895 9.7655 3.3102 1.9927 -3.3581 -4.0701 1.9111 6.6092 -0.8249 0.2284 1.2492 0.1428 1.0387 0.3970 -1.3271 1.0836 2.4168 0.6444 0.1850 -0.7692 -2.2938 0.2718 3.2668 1.6137 0.9952 -1.6235 7.6954 2.8477 -8.8217 7.0532 3.3603 -7.6588 -2.8054 1.0943 4.4288 2.1117 0.1355 -2.7882 7.4852 1.5403 -9.2801 6.1724 2.5639 -6.9166 -3.7503 0.2300 5.2193 3.6231 0.2647 -4.7653 4.5226 1.1270 -5.4954 -7.2874 0.4578 10.1480 -6.6826 -3.0483 7.3335 -7.7613 -1.5892 9.6268 4.3782 -3.4052 -7.8769 3.7713 -2.8940 -6.7627 5.2147 -2.6382 -8.5757 4.0064 -1.5874 -6.3387 6.3142 -0.5522 -8.8812 -5.8147 0.7292 8.3041 -5.5194 -1.1062 6.8597 3.0623 0.9086 -3.6382 -4.3063 0.8553 6.3292 6.5635 0.7306 -8.4900 5.9498 1.2532 -7.3601 5.1049 0.5021 -6.6408 -6.6876 -0.0068 9.0699 -6.3918 -1.8051 7.6458 -5.2251 0.1368 7.1673 5.4648 -1.3230 -8.1672 -6.9579 -1.1770 8.7712 4.8481 -0.8057 -7.0362
-6.9538 1.7579 10.4368 -6.0649 -3.5619 6.2004 -8.3273 -2.7113 9.7546 3.3102 1.9916 -3.3572 -4.0698 1.9028 6.6072 -0.8250 0.2284 1.2495 0.1437 1.0402 0.3976 -1.3266 1.0823 2.4165 0.6444 0.1851 -0.7689 -2.2943 0.2693 3.2665 1.6147 0.9981 -1.6224 7.6955 2.8477 -8.8198 7.0519 3.3548 -7.6576 -2.8063 1.0891 4.4281 2.1106 0.1325 -2.7883 7.4848 1.5425 -9.2774 6.1714 2.5556 -6.9181 -3.7529 0.2189 5.2170 3.6220 0.2592 -4.7670 4.5212 1.1236 -5.4948 -7.2877 0.4542 10.1472 -6.6825 -3.0477 7.3314 -7.7541 -1.5550 9.6357 4.3777 -3.3990 -7.8762 3.7697 -2.8911 -6.7619 5.2151 -2.6308 -8.5748 4.0063 -1.5830 -6.3378 6.3139 -0.5495 -8.8802 -5.8143 0.7260 8.3027 -5.5214 -1.1147 6.8568 3.0609 0.9024 -3.6392 -4.3071 0.8532 6.3298 6.5634 0.7319 -8.4888 5.9492 1.2519 -7.3592 5.1053 0.5027 -6.6410 -6.6870 -0.0078 9.0691 -6.3912 -1.8048 7.6440 -5.2254 0.1351 7.1669 5.4650 -1.3195 -8.1670 -6.9534 -1.1570 8.7759 4.8481 -0.8038 -7.0362
-6.9566 1.7445 10.4341 -6.0629 -3.5535 6.2009 -8.3266 -2.7141 9.7511 3.3108 1.9919 -3.3567 -4.0700 1.8996 6.6056 -0.8249 0.2294 1.2500 0.1440 1.0383 0.3966 -1.3262 1.0835 2.4172 0.6443 0.1851 -0.7687 -2.2945 0.2687 3.2666 1.6155 0.9987 -1.6227 7.6948 2.8460 -8.8185 7.0508 3.3524 -7.6560 -2.8075 1.0841 4.4275 2.1104 0.1316 -2.7886 7.4843 1.5433 -9.2756 6.1702 2.5498 -6.9188 -3.7540 0.2141 5.2159 3.6219 0.2567 -4.7683 4.5208 1.1220 -5.4946 -7.2878 0.4531 10.1472 -6.6814 -3.0448 7.3301 -7.7517 -1.5485 9.6355 4.3762 -3.3971 -7.8749 3.7687 -2.8879 -6.7603 5.2153 -2.6262 -8.5740 4.0059 -1.5802 -6.3366 6.3139 -0.5481 -8.8799 -5.8133 0.7284 8.3034 -5.5210 -1.1133 6.8568 3.0610 0.9024 -3.6390 -4.3080 0.8484 6.3293 6.5626 0.7298 -8.4888 5.9486 1.2502 -7.3590 5.1057 0.5021 -6.6417 -6.6863 -0.0059 9.0693 -6.3899 -1.8016 7.6434 -5.2254 0.1350 7.1674 5.4653 -1.3172 -8.1669 -6.9514 -1.1491 8.7773 4.8484 -0.8016 -7.0359
-6.9569 1.7423 10.4335 -6.0627 -3.5523 6.2010 -8.3275 -2.7189 9.7493 3.3110 1.9931 -3.3563 -4.0698 1.8993 6.6054 -0.8250 0.2291 1.2501 0.1439 1.0382 0.3968 -1.3261 1.0837 2.4174 0.6443 0.1850 -0.7687 -2.2946 0.2681 3.2665 1.6153 0.9977 -1.6229 7.6948 2.8461 -8.8183 7.0507 3.3514 -7.6561 -2.8074 1.0841 4.4276 2.1101 0.1311 -2.7886 7.4845 1.5443 -9.2752 6.1701 2.5486 -6.9190 -3.7542 0.2130 5.2156 3.6217 0.2559 -4.7684 4.5207 1.1218 -5.4945 -7.2876 0.4536 10.1473 -6.6814 -3.0441 7.3302 -7.7510 -1.5450 9.6365 4.3760 -3.3965 -7.8748 3.7685 -2.8875 -6.7602 5.2154 -2.6249 -8.5738 4.0058 -1.5803 -6.3367 6.3139 -0.5482 -8.8800 -5.8129 0.7293 8.3036 -5.5208 -1.1127 6.8568 3.0608 0.9018 -3.6391 -4.3079 0.8490 6.3297 6.5629 0.7307 -8.4886 5.9486 1.2503 -7.3588 5.1057 0.5020 -6.6419 -6.6860 -0.0056 9.0692 -6.3897 -1.8009 7.6434 -5.2252 0.1355 7.1675 5.4651 -1.3174 -8.1670 -6.9512 -1.1484 8.7774 4.8482 -0.8021 -7.0360
-6.9435 1.8429 10.4554 -6.0840 -3.6489 6.1983 -8.3279 -2.5993 9.8327 3.2985 1.9785 -3.3604 -4.0611 1.9899 6.6286 -0.8322 0.2129 1.2486 0.1315 1.0160 0.3936 -1.3365 1.0662 2.4130 0.6415 0.1811 -0.7681 -2.2972 0.2774 3.2721 1.5969 0.9474 -1.6327 7.7027 2.8745 -8.8299 7.0711 3.4003 -7.6772 -2.8045 1.1158 4.4320 2.1126 0.1463 -2.7831 7.4972 1.5553 -9.2937 6.1933 2.6538 -6.9067 -3.7312 0.3156 5.2386 3.6467 0.3425 -4.7535 4.5073 1.0718 -5.5104 -7.2646 0.6034 10.1933 -6.6948 -3.0862 7.3437 -7.8380 -1.8959 9.5642 4.3989 -3.4330 -7.8990 3.7880 -2.9203 -6.7819 5.2222 -2.6849 -8.5946 4.0079 -1.6226 -6.3496 6.3516 -0.5204 -8.9082 -5.8156 0.7410 8.3053 -5.5227 -1.1172 6.8620 3.0499 0.8796 -3.6417 -4.2979 0.9012 6.3369 6.5865 0.7817 -8.4938 5.9567 1.2687 -7.3655 5.0939 0.4732 -6.6429 -6.6892 0.0386 9.0949 -6.4006 -1.8274 7.6530 -5.2255 0.1681 7.1824 5.4586 -1.3688 -8.1745 -6.9870 -1.2757 8.7591 4.8406 -0.8429 -7.0402
-6.9551 1.7586 10.4363 -6.0638 -3.5671 6.2011 -8.3268 -2.6995 9.7575 3.3022 1.9941 -3.3632 -4.0717 1.9048 6.6063 -0.8248 0.2290 1.2496 0.1432 1.0401 0.3972 -1.3269 1.0839 2.4167 0.6444 0.1851 -0.7687 -2.2939 0.2708 3.2668 1.6141 0.9975 -1.6228 7.6943 2.8484 -8.8213 7.0508 3.3568 -7.6594 -2.8063 1.0915 4.4284 2.1138 0.1318 -2.7861 7.4842 1.5413 -9.2787 6.1709 2.5578 -6.9189 -3.7527 0.2219 5.2174 3.6255 0.2586 -4.7644 4.5215 1.1251 -5.4949 -7.2823 0.4520 10.1512 -6.6920 -3.0463 7.3251 -7.7581 -1.5646 9.6312 4.3797 -3.4008 -7.8751 3.7715 -2.8919 -6.7608 5.2164 -2.6332 -8.5739 4.0074 -1.5843 -6.3370 6.3142 -0.5507 -8.8799 -5.8101 0.7259 8.3062 -5.5233 -1.1150 6.8558 3.0603 0.9035 -3.6399 -4.3035 0.8519 6.3322 6.5631 0.7309 -8.4892 5.9493 1.2533 -7.3596 5.1057 0.5038 -6.6408 -6.6840 -0.0100 9.0715 -6.3929 -1.8058 7.6435 -5.2217 0.1336 7.1695 5.4657 -1.3210 -8.1664 -6.9572 -1.1577 8.7731 4.8489 -0.8040 -7.0356
-6.9546 1.7737 10.4384 -6.0737 -3.6025 6.2008 -8.3209 -2.6663 9.7800 3.3478 1.9799 -3.3298 -4.0711 1.9210 6.6098 -0.8260 0.2249 1.2475 0.1400 1.0357 0.3952 -1.3286 1.0862 2.4163 0.6433 0.1828 -0.7699 -2.2932 0.2744 3.2659 1.6122 0.9965 -1.6241 7.6946 2.8518 -8.8265 7.0536 3.3679 -7.6646 -2.8041 1.1083 4.4307 2.0972 0.1410 -2.7989 7.4855 1.5404 -9.2849 6.1750 2.5842 -6.9161 -3.7459 0.2502 5.2230 3.6073 0.2765 -4.7760 4.5230 1.1313 -5.4965 -7.2862 0.4708 10.1507 -6.6830 -3.0525 7.3383 -7.7750 -1.6466 9.6153 4.3832 -3.4135 -7.8783 3.7753 -2.9011 -6.7633 5.2157 -2.6506 -8.5765 4.0070 -1.5958 -6.3396 6.3149 -0.5563 -8.8828 -5.8156 0.7322 8.3036 -5.5182 -1.1009 6.8627 3.0637 0.9090 -3.6370 -4.3046 0.8680 6.3305 6.5657 0.7335 -8.4934 5.9511 1.2595 -7.3617 5.1045 0.5057 -6.6400 -6.6883 -0.0035 9.0711 -6.3920 -1.8049 7.6496 -5.2247 0.1431 7.1686 5.4637 -1.3335 -8.1677 -6.9649 -1.2058 8.7661 4.8462 -0.8147 -7.0364
-6.8632 1.7195 10.5036 -6.0682 -3.5667 6.1978 -8.3247 -2.6998 9.7601 3.3085 1.9913 -3.3585 -4.0764 1.9064 6.6029 -0.8257 0.2294 1.2488 0.1416 1.0405 0.3960 -1.3285 1.0860 2.4156 0.6438 0.1852 -0.7693 -2.2951 0.2721 3.2659 1.6130 0.9979 -1.6237 7.6952 2.8482 -8.8212 7.0508 3.3575 -7.6597 -2.8087 1.0927 4.4265 2.1108 0.1333 -2.7884 7.4860 1.5409 -9.2779 6.1725 2.5578 -6.9177 -3.7551 0.2251 5.2159 3.6211 0.2606 -4.7672 4.5221 1.1248 -5.4947 -7.3284 0.4729 10.1173 -6.6572 -3.0627 7.3512 -7.7699 -1.5629 9.6226 4.3809 -3.4017 -7.8742 3.7749 -2.8935 -6.7585 5.2155 -2.6335 -8.5746 4.0071 -1.5846 -6.3372 6.3144 -0.5505 -8.8803 -5.8406 0.7387 8.2836 -5.5119 -1.1179 6.8643 3.0601 0.9028 -3.6400 -4.3137 0.8576 6.3246 6.5643 0.7306 -8.4887 5.9507 1.2528 -7.3587 5.1062 0.5034 -6.6404 -6.7079 0.0011 9.0539 -6.3851 -1.8100 7.6498 -5.2348 0.1397 7.1599 5.4651 -1.3213 -8.1668 -6.9586 -1.1591 8.7722 4.8495 -0.8045 -7.0349
-6.9621 1.7760 10.4331 -6.0717 -3.6049 6.2021 -8.3468 -2.6460 9.7630 3.3045 1.9979 -3.3617 -3.9563 1.8704 6.6940 -0.8287 0.2266 1.2455 0.1387 1.0361 0.3941 -1.3324 1.0876 2.4135 0.6423 0.1839 -0.7706 -2.2942 0.2758 3.2652 1.6094 0.9975 -1.6262 7.6900 2.8535 -8.8300 7.0482 3.3703 -7.6688 -2.8077 1.1097 4.4278 2.1109 0.1361 -2.7890 7.4829 1.5395 -9.2871 6.1707 2.5883 -6.9188 -3.8092 0.2796 5.1762 3.6242 0.2709 -4.7634 4.5215 1.1317 -5.4979 -7.2812 0.4701 10.1545 -6.6766 -3.0533 7.3433 -7.7683 -1.6650 9.6183 4.3920 -3.4172 -7.8718 3.7835 -2.9043 -6.7574 5.2221 -2.6543 -8.5715 4.0118 -1.5978 -6.3361 6.3171 -0.5579 -8.8812 -5.8299 0.7379 8.2930 -5.5317 -1.0936 6.8530 3.0600 0.9114 -3.6397 -4.2920 0.8616 6.3395 6.5648 0.7332 -8.4940 5.9494 1.2604 -7.3632 5.1045 0.5054 -6.6400 -6.6858 -0.0043 9.0731 -6.3864 -1.8037 7.6543 -5.2393 0.1489 7.1580 5.4676 -1.3356 -8.1647 -6.9651 -1.2065 8.7659 4.8494 -0.8159 -7.0341
-6.9626 1.7624 10.4309 -6.0722 -3.5658 6.1947 -8.3558 -2.6835 9.7379 3.1364 2.0584 -3.4854 -4.0575 1.8977 6.6170 -0.8253 0.2292 1.2491 0.1487 1.0376 0.4011 -1.3196 1.0824 2.4221 0.6437 0.1855 -0.7695 -2.2942 0.2721 3.2666 1.6190 0.9953 -1.6193 7.6867 2.8518 -8.8274 7.0482 3.3587 -7.6616 -2.7993 1.0886 4.4335 2.2163 0.0895 -2.7101 7.4744 1.5452 -9.2866 6.1599 2.5637 -6.9269 -3.7481 0.2230 5.2211 3.6987 0.2302 -4.7096 4.5211 1.1253 -5.4956 -7.2497 0.4393 10.1754 -6.7434 -3.0254 7.2877 -7.7710 -1.5660 9.6214 4.3826 -3.4025 -7.8730 3.7622 -2.8881 -6.7680 5.2306 -2.6402 -8.5634 4.0195 -1.5895 -6.3282 6.3172 -0.5512 -8.8781 -5.7784 0.7122 8.3294 -5.5343 -1.1079 6.8478 3.0428 0.9105 -3.6529 -4.2826 0.8443 6.3473 6.5567 0.7338 -8.4944 5.9439 1.2561 -7.3638 5.1084 0.5022 -6.6388 -6.6683 -0.0157 9.0832 -6.4145 -1.7975 7.6281 -5.2034 0.1263 7.1829 5.4746 -1.3250 -8.1598 -6.9645 -1.1572 8.7677 4.8530 -0.8057 -7.0324
-6.9102 1.9902 10.4925 -6.1222 -3.7114 6.2178 -8.3755 -2.4537 9.9815 3.2719 1.9492 -3.3423 -4.0490 2.0698 6.6561 -0.8633 0.1557 1.2586 0.1089 0.9797 0.4031 -1.3650 1.0159 2.4228 0.6179 0.1423 -0.7582 -2.3325 0.1978 3.2752 1.5904 0.9710 -1.6114 7.7666 2.9764 -8.8616 7.1300 3.4779 -7.7161 -2.8281 1.0910 4.4497 2.0968 0.1327 -2.7697 7.5495 1.6510 -9.3124 6.2341 2.6614 -6.9599 -3.7547 0.2957 5.2594 3.6869 0.3292 -4.8161 4.4920 1.0634 -5.4954 -7.2833 0.6724 10.2576 -6.7429 -3.2154 7.3387 -7.9108 -1.8827 9.6722 4.4557 -3.4813 -8.0014 3.8092 -3.0124 -6.8608 5.3096 -2.6730 -8.7052 4.0029 -1.7282 -6.4015 6.3994 -0.4994 -8.9614 -5.8286 0.7849 8.3476 -5.5607 -1.1804 6.8792 3.0675 0.9396 -3.6326 -4.3110 0.9213 6.3657 6.6315 0.8122 -8.5388 5.9852 1.3005 -7.3875 5.0897 0.4722 -6.6385 -6.7094 0.0756 9.1436 -6.4523 -1.9225 7.6714 -5.2493 0.1723 7.2175 5.5281 -1.3528 -8.2594 -7.0318 -1.3138 8.7997 4.8567 -0.8743 -7.0795
-6.9683 1.7510 10.4255 -6.1277 -3.5267 6.1537 -8.5224 -2.6268 9.6066 3.3032 1.9957 -3.3614 -4.1030 1.9160 6.5817 -0.7997 0.2189 1.2685 0.1798 1.0270 0.4240 -1.2813 1.0626 2.4501 0.6714 0.1746 -0.7489 -2.2730 0.2599 3.2825 1.6449 0.9854 -1.6007 7.6572 2.8624 -8.8470 7.0035 3.3732 -7.6917 -2.7665 1.0680 4.4577 2.1287 0.1239 -2.7749 7.4639 1.5550 -9.2913 6.1105 2.5754 -6.9629 -3.7116 0.1985 5.2472 3.5999 0.2653 -4.7838 4.4779 1.1385 -5.5263 -7.1528 0.3967 10.2456 -6.7502 -3.0184 7.2803 -7.6809 -1.5867 9.6870 4.4359 -3.4231 -7.8311 3.7948 -2.8994 -6.7414 5.2779 -2.6527 -8.5278 4.0202 -1.5880 -6.3264 6.3187 -0.5504 -8.8766 -5.7730 0.7122 8.3331 -5.5620 -1.0967 6.8266 3.0575 0.9034 -3.6417 -4.3326 0.8622 6.3114 6.5561 0.7335 -8.4941 5.9106 1.2658 -7.3872 5.0893 0.5084 -6.6535 -6.6284 -0.0311 9.1118 -6.4239 -1.7899 7.6190 -5.2462 0.1455 7.1521 5.4928 -1.3303 -8.1461 -6.9455 -1.1537 8.7816 4.8544 -0.8051 -7.0312
-6.8058 1.6727 10.5438 -6.0939 -3.5380 6.1781 -8.0948 -2.8090 9.9191 3.3747 1.9650 -3.3092 -4.1308 1.9220 6.5599 -0.8458 0.2379 1.2348 0.1174 1.0498 0.3774 -1.3403 1.0903 2.4069 0.6255 0.1931 -0.7825 -2.2863 0.2641 3.2730 1.5825 1.0116 -1.6469 7.7098 2.8404 -8.8071 7.0226 3.3635 -7.6766 -2.7523 1.0581 4.4681 2.0718 0.1468 -2.8166 7.5273 1.5281 -9.2433 6.1518 2.5557 -6.9326 -3.6506 0.1686 5.2911 3.5799 0.2732 -4.7992 4.4707 1.1435 -5.5308 -7.3558 0.4831 10.0967 -6.7660 -3.0095 7.2674 -7.8583 -1.4978 9.5572 4.4060 -3.4088 -7.8520 3.7758 -2.8890 -6.7541 5.2519 -2.6398 -8.5465 3.9851 -1.5732 -6.3515 6.3440 -0.5634 -8.8576 -5.8251 0.7341 8.2944 -5.5418 -1.1042 6.8414 3.0628 0.9007 -3.6376 -4.2847 0.8391 6.3470 6.5850 0.7232 -8.4725 5.9392 1.2552 -7.3657 5.0864 0.5102 -6.6562 -6.7271 0.0116 9.0389 -6.4427 -1.7787 7.6042 -5.2139 0.1311 7.1760 5.4872 -1.3278 -8.1505 -6.9791 -1.1352 8.7572 4.8378 -0.7983 -7.0435
-6.9570 1.7359 10.4331 -5.9264 -3.6038 6.3017 -7.9990 -2.8403 9.9878 3.3473 1.9767 -3.3291 -4.0435 1.8836 6.6244 -0.8073 0.2213 1.2633 0.1823 1.0204 0.4253 -1.2936 1.0696 2.4412 0.6253 0.1925 -0.7827 -2.2631 0.2537 3.2902 1.6458 0.9853 -1.6002 7.6600 2.8617 -8.8436 7.0535 3.3502 -7.6538 -2.8578 1.1014 4.3904 2.1507 0.1130 -2.7584 7.4279 1.5693 -9.3160 6.1869 2.5412 -6.9071 -3.6874 0.1830 5.2643 3.6546 0.2410 -4.7436 4.5766 1.0985 -5.4526 -7.3685 0.4897 10.0872 -6.8272 -2.9799 7.2222 -7.9033 -1.4927 9.5194 4.3549 -3.3856 -7.8896 3.7748 -2.8887 -6.7539 5.1783 -2.6076 -8.6004 4.0329 -1.5931 -6.3158 6.2583 -0.5296 -8.9198 -5.8288 0.7355 8.2917 -5.5736 -1.0915 6.8179 3.0994 0.8858 -3.6106 -4.2767 0.8340 6.3530 6.5223 0.7497 -8.5185 5.9476 1.2523 -7.3593 5.1254 0.4943 -6.6277 -6.7458 0.0178 9.0250 -6.4837 -1.7597 7.5737 -5.2364 0.1405 7.1595 5.4347 -1.3053 -8.1887 -7.0135 -1.1152 8.7323 4.8531 -0.8049 -7.0321
-6.8810 1.7833 10.4966 -6.1075 -3.6125 6.1788 -7.9376 -2.8019 10.0738 3.2786 1.9984 -3.3807 -3.9191 1.8962 6.7265 -0.8072 0.2082 1.2632 0.1367 1.0273 0.3943 -1.3047 1.0679 2.4353 0.6493 0.1749 -0.7635 -2.2736 0.2684 3.2827 1.6292 0.9738 -1.6099 7.6813 2.8672 -8.8420 7.0617 3.3902 -7.6707 -2.7897 1.1175 4.4432 2.1075 0.1393 -2.7888 7.4628 1.5563 -9.3090 6.1708 2.6213 -6.9203 -3.7127 0.2618 5.2471 3.6295 0.2822 -4.7559 4.5262 1.1176 -5.4952 -7.4806 0.6017 10.0128 -6.7665 -3.0295 7.2848 -8.0350 -1.6777 9.4179 4.4047 -3.4323 -7.8730 3.8101 -2.9213 -6.7499 5.2158 -2.6650 -8.5838 4.0177 -1.6100 -6.3356 6.3046 -0.5486 -8.8994 -5.8446 0.7504 8.2821 -5.4861 -1.1021 6.8885 3.0549 0.9178 -3.6396 -4.1944 0.8440 6.4132 6.5532 0.7484 -8.5073 5.9443 1.2700 -7.3699 5.0989 0.4933 -6.6421 -6.8027 0.0513 8.9929 -6.4445 -1.7880 7.6157 -5.1829 0.1292 7.2046 5.4557 -1.3437 -8.1732 -7.0680 -1.1958 8.6932 4.8446 -0.8297 -7.0374
-6.6119 1.6570 10.6929 -6.2751 -3.5528 6.0538 -7.9180 -2.7850 10.1088 3.4180 1.9349 -3.2753 -3.7158 1.8038 6.8737 -0.8439 0.2235 1.2393 0.2155 0.9806 0.4531 -1.2254 1.0209 2.4938 0.5716 0.2012 -0.8199 -2.2520 0.2488 3.3026 1.6873 0.9315 -1.5665 7.4270 2.9696 -9.0258 6.8453 3.4833 -7.8326 -2.6577 1.0470 4.5395 2.0197 0.1705 -2.8508 7.2655 1.6398 -9.4541 6.0207 2.6999 -7.0298 -3.5644 0.2023 5.3576 3.5905 0.3150 -4.7860 4.5533 1.0874 -5.4752 -7.3593 0.6154 10.1202 -7.1273 -2.8553 7.0125 -8.2358 -1.6778 9.2578 4.6404 -3.5198 -7.7073 4.0371 -3.0099 -6.5863 5.3784 -2.7343 -8.4725 4.2040 -1.6868 -6.1984 6.2906 -0.5192 -8.9268 -5.7434 0.7095 8.3587 -5.6539 -1.0493 6.7628 3.0779 0.8992 -3.6205 -4.1027 0.8007 6.4786 6.4449 0.8092 -8.5938 5.8919 1.2966 -7.4102 5.1058 0.4842 -6.6354 -6.7892 0.0850 9.0152 -6.6788 -1.6801 7.4403 -5.1753 0.1252 7.2141 5.5345 -1.3800 -8.1185 -7.2119 -1.1236 8.5902 4.9218 -0.8680 -6.9799
-6.3768 1.5910 10.8578 -6.8208 -3.2600 5.6662 -8.2003 -2.6820 9.9269 3.5800 1.8325 -3.1440 -3.4132 1.6500 7.0905 -0.9643 0.2985 1.1674 0.2093 0.9774 0.4558 -1.2270 1.0061 2.4989 0.5344 0.2507 -0.8381 -2.3451 0.3002 3.2493 1.7385 0.8992 -1.5270 7.0818 3.1085 -9.2862 6.4579 3.6189 -8.1361 -2.5689 0.9828 4.6113 1.9832 0.1923 -2.8684 7.0909 1.7344 -9.5928 5.8702 2.7577 -7.1863 -3.5795 0.1938 5.3576 3.4333 0.3830 -4.9421 4.5806 1.0503 -5.4490 -7.0731 0.4375 10.3559 -7.5434 -2.6148 6.7195 -8.3600 -1.5560 9.2256 4.9735 -3.6342 -7.4900 4.3896 -3.1365 -6.3327 5.6157 -2.7885 -8.3549 4.4348 -1.7994 -6.0234 6.3337 -0.5207 -8.9328 -5.5115 0.5475 8.5390 -5.7711 -1.0144 6.6886 3.0800 0.8651 -3.6157 -3.9212 0.6787 6.6210 6.4079 0.8275 -8.6562 5.8092 1.3351 -7.4860 5.1477 0.4665 -6.6046 -6.6137 -0.0281 9.1573 -6.8733 -1.5886 7.3160 -5.0704 0.0619 7.3070 5.6736 -1.4087 -8.0501 -7.2686 -1.1017 8.5776 5.0768 -0.9136 -6.8725
-6.8720 2.6243 11.5609 -7.7033 -3.9905 8.0471 -9.9829 -1.8933 11.4842 3.2626 1.8151 -3.9892 -5.1880 1.7828 6.6303 -0.6064 0.2747 1.6834 -0.4597 -0.0562 0.0763 -2.0681 -0.1260 2.3321 1.0901 -0.0573 -0.4671 -2.1180 0.0311 3.9936 1.2717 0.4789 -2.0538 8.5944 3.5414 -9.2567 7.9361 3.8369 -8.1132 -3.6560 0.3856 4.5575 2.5177 -0.2510 -2.8808 8.3899 2.3335 -9.8733 6.9262 2.8319 -7.4811 -4.0926 -0.3397 5.9389 3.9769 -0.0673 -5.4312 4.8956 0.7902 -6.1541 -7.4787 1.3087 11.5207 -8.0237 -3.2014 9.2223 -8.5971 -1.2535 11.6289 5.7293 -3.2243 -10.2401 4.9444 -3.2357 -9.1587 6.4821 -2.1369 -10.4914 4.8630 -2.0289 -8.1681 7.3191 0.1032 -10.0188 -6.3462 0.8618 9.2129 -6.6078 -1.3726 8.0628 3.2494 0.6422 -4.0927 -5.1275 0.5480 6.8571 7.4451 1.2936 -9.3234 6.6864 1.5296 -8.0981 5.6946 0.4250 -7.5276 -7.1836 0.4176 10.3643 -7.4791 -1.8715 9.2309 -6.0279 -0.0157 8.0380 6.4858 -0.9368 -9.6208 -7.7840 -0.9403 10.3907 5.6422 -0.8574 -8.3928
-7.0372 3.0140 11.5646 -8.0683 -3.9916 8.6809 -9.5593 -1.9164 12.5008 3.7278 1.5185 -3.8351 -4.0118 1.0787 7.5703 -1.3985 -0.7120 1.0668 -0.1530 0.1064 0.2804 -1.7740 -0.0544 2.5350 0.3646 -0.5580 -1.1324 -3.0609 -0.7269 3.3689 1.5682 0.3518 -1.9557 8.5413 3.8453 -9.4455 7.9115 4.0620 -8.2488 -3.3553 -0.0074 4.9143 2.1119 -0.3533 -3.3835 8.3832 2.6345 -10.0812 7.0123 2.9873 -7.5982 -4.6352 -0.5371 5.7611 3.9624 -0.1197 -5.7306 5.1688 0.7209 -6.2164 -7.8825 1.7805 11.4150 -8.5080 -2.9765 9.6423 -9.2456 -0.6206 11.6669 6.1447 -3.1112 -10.4935 5.4174 -3.2287 -9.3650 6.7869 -1.9488 -10.7535 5.2628 -2.0489 -8.3465 7.4717 0.3453 -10.2376 -6.4119 0.9132 9.3567 -6.7306 -1.4544 8.4785 3.3137 0.4633 -4.2674 -4.8537 0.1719 7.2720 7.5458 1.5225 -9.5133 6.8303 1.6723 -8.2424 5.9420 0.4796 -7.6675 -7.4707 0.7137 10.4213 -7.8169 -1.6916 9.5518 -6.0062 -0.1518 8.3498 6.7386 -0.7805 -9.8452 -8.1783 -0.5856 10.5453 5.9522 -0.8063 -8.5832
-9.6325 -1.6127 8.1050 -3.0936 0.6936 9.8432 -7.4380 0.5960 11.6261 3.7412 1.3383 -2.9617 -6.4059 -0.3364 4.7125 -0.8753 -0.6652 1.1596 -0.0350 0.2846 0.2682 -1.8719 0.1287 2.0009 0.6324 -0.5245 -0.8338 -2.3919 -0.7006 3.1532 1.6688 0.3741 -1.5660 9.4081 1.4729 -7.6186 8.9300 1.6021 -6.3326 -3.7139 -0.0971 3.7026 2.1893 -0.3605 -2.8019 8.5735 1.0273 -8.6159 7.5352 1.2913 -5.9768 -3.9849 -0.6330 5.0153 3.7223 0.1434 -5.0445 4.7746 0.6481 -5.2794 -8.7662 -1.2674 9.0990 -4.3366 0.2811 10.3572 -6.9406 -0.5254 11.0924 2.9582 -0.9031 -10.1288 2.3416 -0.8191 -8.8886 4.2387 -0.5604 -10.2435 3.0881 -0.3506 -7.6978 6.3466 0.2385 -9.3311 -7.0709 -0.8350 7.3097 -4.8503 -0.0561 7.9613 3.2742 0.4732 -3.5314 -5.3371 -0.3984 5.4717 7.1427 0.6852 -8.3008 6.6473 0.8194 -6.9915 5.2044 0.4664 -6.6366 -7.5348 -0.8878 8.7017 -5.1961 -0.0673 9.3808 -5.7443 -0.4316 6.9447 4.9912 -0.1047 -9.1150 -6.5871 -0.4334 9.7799 4.3985 0.0063 -7.7889
-8.3871 3.1537 12.9552 -9.0857 -4.7886 10.3158 -10.7239 -2.0368 13.2066 4.4290 1.6425 -4.1943 -5.5308 1.4739 7.5727 -1.0201 0.5554 1.5519 0.1763 -0.1667 0.4730 -2.2172 -0.2419 2.5069 0.4479 0.3191 -1.2696 -2.5068 0.0024 4.2766 2.1126 0.3754 -1.9610 9.3021 3.7154 -10.2893 8.6537 4.0292 -9.3014 -4.1544 0.1506 5.0543 2.3631 0.0841 -3.6885 9.1038 2.4849 -10.7723 7.5521 3.0012 -8.4853 -4.5633 -0.6376 6.5573 4.3769 -0.0755 -6.0990 5.3069 0.8196 -7.0348 -8.0683 1.4411 12.6918 -9.4214 -3.1519 10.4901 -9.5574 -0.8996 12.8085 6.8138 -3.1729 -11.5429 5.9754 -3.3053 -10.6172 7.4650 -2.0409 -11.5760 5.6734 -2.1743 -9.4000 8.1046 0.2387 -10.9294 -6.8562 0.7121 10.1379 -7.5754 -1.6017 9.0843 3.7871 0.6495 -4.6130 -5.6220 0.1717 7.6906 8.1190 1.4169 -10.2054 7.2736 1.6330 -8.9995 6.2682 0.4623 -8.4591 -7.8429 0.5098 11.3828 -8.4908 -1.9083 10.3003 -6.6831 -0.3073 8.9482 7.2855 -0.8547 -10.5929 -8.6475 -0.8008 11.4722 6.3646 -0.8778 -9.4462
-11.4856 -1.1985 9.2753 -4.3207 0.4033 12.6091 -8.4849 -0.2145 14.1260 4.3916 1.2863 -3.7795 -6.7523 -0.7634 6.0230 -0.8041 -0.3075 1.5735 -0.5839 0.1783 -0.0927 -2.4018 -0.1301 2.2637 0.7978 -0.4749 -0.9553 -2.5495 -0.1549 4.0286 1.4983 0.4992 -2.2503 10.6089 1.4510 -8.6968 10.1121 1.5034 -7.4596 -4.1516 -0.4048 4.7269 2.3814 -0.3442 -3.5097 9.7877 1.0998 -9.7411 8.5952 1.1767 -7.1564 -4.3518 -0.2408 6.4145 3.9830 0.2170 -6.0822 5.4567 0.4879 -6.5091 -10.2341 -1.4532 10.3012 -5.8416 0.4018 12.4796 -8.8971 -0.6234 12.6373 4.4446 -0.6163 -12.3068 3.6159 -0.6863 -11.2888 5.7172 -0.2531 -12.0883 4.0454 -0.3390 -9.7948 7.6178 0.4228 -10.6970 -8.0104 -0.9473 8.6795 -5.8318 -0.0211 9.7995 3.6578 0.4755 -4.4100 -5.9427 -0.5068 6.9604 8.3191 0.7592 -9.5676 7.6703 0.7886 -8.2447 6.0971 0.4221 -8.0794 -8.7436 -0.9633 10.0480 -6.5183 -0.0462 11.1908 -6.5645 -0.4815 8.5028 6.2622 0.0801 -10.7271 -8.0086 -0.5276 11.3070 5.4188 0.0455 -9.5095
-11.2955 -1.9514 9.3185 -4.4686 0.8880 12.5323 -8.4751 -0.3665 14.1122 4.7172 0.3442 -3.6061 -6.6633 -1.0222 6.0377 -0.9039 0.2848 1.5197 -0.3046 -0.4954 0.0734 -2.2468 -0.4499 2.3422 0.5540 0.5034 -1.0706 -2.5381 -0.0451 4.0264 1.7769 -0.2514 -2.0862 10.5517 1.5670 -8.7243 10.0460 1.6755 -7.4938 -4.1215 -0.4201 4.7268 2.1420 0.5151 -3.6257 9.7439 1.1464 -9.7528 8.5383 1.3175 -7.1816 -4.3439 -0.2118 6.4056 4.0128 0.0963 -6.0503 5.4053 0.6163 -6.5299 -10.3511 -0.9587 10.2020 -5.8028 0.1632 12.4928 -8.9708 -0.3929 12.5665 4.4275 -0.7150 -12.2725 3.5925 -0.7331 -11.2574 5.7024 -0.3545 -12.0608 4.0213 -0.3626 -9.7683 7.5889 0.3992 -10.6922 -8.0522 -0.7620 8.6261 -5.7901 -0.1959 9.8091 3.7353 0.3137 -4.3587 -5.9046 -0.6031 6.9603 8.2795 0.7955 -9.5712 7.6232 0.8716 -8.2570 6.0599 0.4864 -8.0848 -8.8065 -0.7313 9.9806 -6.5072 -0.1298 11.1767 -6.5484 -0.5081 8.4838 6.2372 0.0408 -10.7126 -8.0485 -0.4121 11.2619 5.3879 0.0479 -9.4978
-12.1363 -3.0060 10.8831 -6.2238 2.1020 14.4278 -9.9958 0.3267 14.9125 4.7412 1.4489 -4.4560 -6.2654 -2.2986 7.5443 -1.2539 0.5549 1.4765 -0.2760 -0.3384 0.0939 -1.6371 -0.1153 3.1495 1.2234 0.3409 -0.8293 -3.4187 -0.0326 3.9059 1.4173 0.4360 -2.7050 11.0837 2.0848 -9.6665 10.6743 2.1348 -8.5073 -3.8610 -0.7587 5.5878 2.8359 -0.3287 -3.6949 10.2767 1.5576 -10.6028 9.0988 1.5467 -8.0621 -4.9630 0.0041 6.8292 4.2560 0.1573 -6.6697 5.8316 0.2915 -7.2603 -11.1781 -1.4508 10.9748 -7.0663 0.7103 13.7228 -10.0730 -0.3128 13.3401 5.6026 -1.0870 -13.5575 4.7275 -1.3282 -12.7273 6.6831 -0.4947 -13.1214 4.8385 -0.8838 -11.0399 8.2520 0.5028 -11.5174 -8.5191 -1.1539 9.5315 -6.4309 -0.0614 10.8972 3.9917 0.5206 -4.9026 -6.0472 -0.9998 7.9321 8.8220 0.9680 -10.3937 8.1292 0.9274 -9.0886 6.5750 0.2980 -8.9350 -9.4863 -1.0325 10.8504 -7.4267 0.1276 12.2047 -6.9610 -0.6776 9.4706 7.0084 -0.0610 -11.6413 -8.9291 -0.3831 12.1334 6.0796 -0.2358 -10.4894
-12.7487 -2.3630 10.9970 -5.4961 -0.1077 15.0351 -9.6405 -0.4905 15.4041 5.4202 -0.0386 -4.2729 -7.7637 0.0768 6.9086 -1.0081 0.5510 1.5655 -0.0957 -0.2957 0.1332 -1.7374 -0.3051 3.0940 1.2919 0.4895 -0.8644 -3.3149 0.2686 4.0277 1.9690 -0.2656 -2.4665 11.3681 1.5733 -9.8435 10.9572 1.7211 -8.6684 -4.1694 -0.6716 5.4473 2.7895 0.7066 -3.8670 10.4947 1.1504 -10.7779 9.3251 1.3758 -8.2347 -4.9895 0.0025 6.9543 4.4445 0.1050 -6.7185 5.8738 0.6853 -7.4482 -11.4543 -1.2880 11.4458 -6.8620 -0.0105 14.0087 -9.9497 -0.8064 13.7719 5.4645 -0.6422 -13.7740 4.5425 -0.6763 -12.9701 6.6519 -0.3023 -13.3157 4.7219 -0.3623 -11.2618 8.3314 0.4316 -11.6952 -8.9234 -0.7347 9.6505 -6.6208 -0.0775 10.9540 4.2986 0.2209 -4.8878 -6.6612 -0.1678 7.7544 8.9661 0.8164 -10.5754 8.2767 0.9064 -9.2787 6.6236 0.5214 -9.1154 -9.7340 -0.9127 11.1077 -7.4121 -0.2535 12.4079 -7.3269 -0.3646 9.4749 7.0258 0.0856 -11.8345 -8.9827 -0.6280 12.4196 6.0542 0.0762 -10.6914
-12.7977 -2.3849 11.2207 -5.6537 0.5851 15.1073 -9.7008 -0.2820 15.5045 5.1515 0.8529 -4.4267 -7.7882 -0.2370 6.9907 -1.3584 -0.2702 1.2356 0.1608 -0.3904 0.3730 -1.8682 0.2555 3.0494 0.8745 0.5638 -1.1966 -3.0704 -0.6707 4.2582 2.0040 -0.4837 -2.5300 11.4568 1.6088 -9.7770 11.0417 1.6878 -8.6240 -4.2588 0.1380 5.4640 2.5209 0.2957 -4.0903 10.5960 1.2221 -10.7424 9.4078 1.3035 -8.2230 -4.9307 -0.5442 7.0739 4.4086 -0.0027 -6.8643 5.8732 0.4937 -7.5262 -11.4878 -1.2833 11.5821 -6.9429 0.1473 14.1272 -10.0008 -0.6676 13.8849 5.6716 -0.5597 -13.9070 4.7424 -0.6879 -13.1267 6.8335 -0.1742 -13.4139 4.8656 -0.3785 -11.4131 8.4619 0.5111 -11.7329 -8.9436 -0.8221 9.7745 -6.6447 -0.0782 11.0428 4.0881 0.3785 -5.0852 -6.6405 -0.4098 7.8611 9.0631 0.8493 -10.5676 8.3595 0.8620 -9.2894 6.7099 0.4432 -9.1769 -9.7590 -0.9358 11.2284 -7.4617 -0.1520 12.5107 -7.3231 -0.4325 9.5876 7.1746 0.1479 -11.9088 -9.0184 -0.5610 12.5334 6.1833 0.0621 -10.7881
-14.4799 -1.5918 12.8702 -7.3595 -0.0879 17.2991 -10.8348 -0.7174 16.7972 5.6954 0.7029 -4.9901 -8.1829 -0.2028 8.0568 -1.3128 -0.4977 1.6352 0.2894 0.1930 0.5605 -2.2141 0.2605 3.3086 0.7641 -0.0215 -1.4405 -3.2889 -0.6573 4.8159 2.5153 0.1801 -2.4445 12.4372 1.8094 -11.2717 12.2510 1.9660 -10.2538 -4.7069 0.0658 6.1139 2.8687 0.1845 -4.4569 11.4068 1.3399 -12.0373 10.4819 1.5625 -9.5278 -5.3354 -0.4574 8.0430 4.9118 0.1344 -7.5342 6.4526 0.5937 -8.4542 -12.5029 -1.8828 12.4099 -8.0138 0.4333 15.5333 -11.1066 -0.8595 15.0767 6.6928 -0.6723 -15.3227 5.9152 -0.7959 -14.8347 7.7422 -0.2413 -14.6150 5.7368 -0.4786 -12.8375 9.1899 0.5406 -12.7936 -9.7263 -1.0560 10.9523 -7.5235 0.0414 12.3703 4.5875 0.3758 -5.5740 -7.1831 -0.3870 8.9459 9.8023 0.9353 -11.7043 9.1394 0.9979 -10.3930 7.3855 0.5154 -10.2054 -10.7221 -1.1462 12.4110 -8.5488 -0.1253 13.8508 -8.0293 -0.4551 10.7499 7.9574 0.1409 -12.9934 -10.0865 -0.6960 13.7799 6.9352 0.0566 -11.8960
-11.1519 3.2726 16.2547 -11.9272 -5.1227 14.4655 -12.4995 -1.9735 16.0353 5.3556 1.4746 -5.3323 -7.2854 1.2429 9.1282 -1.5848 -0.3068 1.5231 0.1347 0.0199 0.4638 -2.2468 0.0957 3.4107 0.6830 0.0828 -1.5337 -3.6551 -0.6579 4.7213 2.4276 0.1454 -2.5817 11.4217 3.8797 -12.4046 11.0805 4.2481 -11.5649 -4.7743 0.0137 6.3129 2.9605 0.0550 -4.5580 10.8673 2.6617 -12.7948 9.6115 3.2838 -10.5126 -5.8544 -0.8149 7.9432 5.2805 -0.0977 -7.5582 6.5890 0.7060 -8.6905 -10.3646 2.2445 14.7067 -10.5644 -3.7844 13.9176 -11.2525 -0.7998 15.5125 8.6231 -2.6746 -14.6671 7.9623 -3.0229 -14.1732 9.1299 -1.5214 -14.1778 7.3098 -2.2024 -12.3108 9.5940 0.5471 -12.9538 -8.8681 0.7981 12.1737 -8.9348 -2.0333 11.7075 4.5737 0.5281 -5.7830 -7.1437 -0.0648 9.3622 9.7058 1.5965 -12.1638 8.9152 1.7775 -10.9151 7.6897 0.4877 -10.3915 -9.8514 0.6678 13.6554 -9.9899 -2.1514 13.2125 -8.2509 -0.5112 11.0090 8.8241 -0.5169 -12.8584 -10.3745 -0.8062 14.1362 7.8348 -0.7665 -11.7262
-13.7893 -3.2932 13.3865 -7.6640 1.1875 17.1692 -11.1239 0.0970 16.6749 5.6448 0.7833 -5.0221 -7.5624 -1.9702 8.4663 -1.5464 0.1230 1.5010 0.2536 0.0739 0.5353 -2.0581 -0.4181 3.4052 0.6765 0.0636 -1.4965 -3.6247 0.1778 4.6206 2.4614 0.2833 -2.4800 12.3656 2.1363 -11.3310 12.1404 2.3209 -10.2988 -4.4967 -0.7238 6.2592 2.8474 0.1621 -4.4868 11.3781 1.5420 -12.1018 10.4345 1.8216 -9.5787 -5.5679 -0.0136 7.9087 4.9120 0.1175 -7.5674 6.4874 0.5647 -8.4749 -12.4818 -2.0553 12.5122 -8.3367 1.2488 15.3480 -11.3118 -0.3673 15.0192 6.8735 -1.0123 -15.2802 6.0423 -1.1944 -14.7744 7.8972 -0.4564 -14.5963 5.8727 -0.7933 -12.8354 9.2566 0.5276 -12.8254 -9.6491 -1.2910 11.0683 -7.6515 0.2417 12.3142 4.5640 0.3954 -5.6058 -7.0433 -0.8802 9.0707 9.8231 1.0231 -11.7595 9.1526 1.0977 -10.4491 7.4233 0.4777 -10.2282 -10.7226 -1.2319 12.4985 -8.7353 0.3067 13.7807 -8.0195 -0.5902 10.8091 8.0685 0.0189 -13.0045 -10.2292 -0.3952 13.7727 7.0387 -0.1057 -11.9237
-15.1506 -1.5874 13.8166 -8.1873 0.3268 18.3394 -11.3703 -0.7673 17.5080 5.6008 0.7140 -5.3630 -8.3908 -0.2003 8.6015 -1.5843 0.1906 1.6481 0.1520 -0.1587 0.4552 -2.3204 -0.6540 3.4502 0.5924 0.0126 -1.6247 -3.3825 0.0882 5.1596 2.3752 0.1955 -2.7335 13.0588 1.7616 -11.7802 12.9211 1.8552 -10.8739 -5.0133 -0.5523 6.3934 2.8517 0.0386 -4.7988 11.9269 1.3492 -12.5338 11.0413 1.4781 -10.0452 -5.6243 -0.3820 8.4705 5.0992 0.1829 -7.9839 6.7962 0.4943 -8.9248 -13.2395 -1.4338 12.9062 -8.1210 -0.1790 16.3865 -11.6023 -0.9504 15.8008 7.3601 -0.4294 -16.1327 6.5650 -0.5918 -15.7580 8.3463 -0.0258 -15.2561 6.2348 -0.3627 -13.6700 9.7004 0.6282 -13.3274 -10.2285 -0.8524 11.5775 -7.8564 -0.2706 13.0998 4.6053 0.3451 -5.9846 -7.4876 -0.3587 9.4934 10.2926 0.9538 -12.2123 9.6092 0.9642 -10.8951 7.7847 0.4939 -10.7347 -11.2807 -1.0023 13.0813 -8.9289 -0.4128 14.6475 -8.4060 -0.4839 11.3666 8.4628 0.2539 -13.5868 -10.5710 -0.7849 14.5513 7.3691 0.1139 -12.5338
-11.1227 2.9961 17.5690 -13.4613 -4.6960 14.9730 -12.8190 -1.9474 16.8368 5.4054 1.4944 -5.5806 -6.8098 0.9892 10.1852 -1.1393 0.0381 2.0421 -0.2331 -0.5146 0.1846 -2.9290 -0.2981 3.1515 0.7355 0.2990 -1.5373 -3.5932 -0.7384 5.1422 2.5121 0.1074 -2.7325 11.5528 4.1893 -13.3201 11.2068 4.6080 -12.6494 -5.0256 -0.0887 6.6356 3.0536 0.0659 -4.7883 11.1054 2.8209 -13.4912 9.7947 3.5358 -11.3277 -6.3616 -0.8973 8.1956 5.5885 -0.0578 -7.8890 6.8751 0.7387 -9.1671 -10.1855 2.1663 15.7199 -12.0310 -3.6132 13.8314 -11.9654 -0.6800 15.9783 9.6116 -2.8828 -15.0341 9.0785 -3.2875 -14.6053 9.8872 -1.5930 -14.5598 8.1475 -2.4107 -12.7647 10.0453 0.5855 -13.4450 -8.9852 0.6880 12.9569 -9.7872 -1.9634 12.0318 4.7317 0.5614 -6.0677 -7.2905 -0.1952 9.9769 10.0302 1.7030 -12.7508 9.2072 1.9051 -11.5410 8.0735 0.5112 -10.8815 -10.1007 0.6249 14.4318 -10.9364 -2.0430 13.5427 -8.6509 -0.5574 11.5441 9.4002 -0.5589 -13.2912 -11.0258 -0.7494 14.6587 8.4107 -0.8554 -12.1638
-15.5801 -2.1819 14.7093 -9.0722 0.6483 19.1212 -11.9266 -0.4309 18.0065 5.8038 0.7729 -5.4924 -8.3661 -1.5030 9.2567 -1.6357 0.1189 1.7589 0.0414 -0.2040 0.4421 -2.2492 -0.3857 3.7862 0.7407 0.3000 -1.5371 -3.8857 0.2726 5.1577 2.4889 -0.0662 -2.8224 13.5149 1.9883 -12.5817 13.4610 2.1269 -11.7803 -5.2055 -0.5183 6.7198 3.1030 0.2378 -4.8487 12.2617 1.4601 -13.1871 11.5360 1.6979 -10.7340 -6.0931 -0.0264 8.7258 5.4796 0.1795 -8.1901 7.1625 0.5642 -9.2838 -13.6608 -1.8010 13.5297 -8.7004 0.4375 16.9368 -12.1136 -0.7389 16.3332 7.7595 -0.6469 -16.7258 7.0798 -0.8055 -16.4466 8.6998 -0.1723 -15.7432 6.6450 -0.5456 -14.2343 10.0378 0.6187 -13.8493 -10.5959 -1.1551 12.1225 -8.2986 -0.1295 13.6346 4.8880 0.4181 -6.1204 -7.7199 -0.7138 9.9760 10.6424 1.0233 -12.7524 10.0033 1.0711 -11.4223 8.1534 0.5203 -11.1797 -11.7132 -1.1872 13.6184 -9.4158 -0.1520 15.2041 -8.7406 -0.6310 11.8647 8.8025 0.1804 -14.0650 -11.0645 -0.6796 15.0958 7.7324 0.0380 -13.0035
-15.5799 -2.2174 14.7415 -9.0831 0.6491 19.1311 -11.9153 -0.4586 18.0265 5.8125 0.8095 -5.4901 -8.6669 -0.6940 9.0914 -1.4031 -0.4541 1.9079 -0.1362 0.4326 0.3473 -2.5149 0.3004 3.6399 0.9348 -0.3419 -1.4216 -3.5769 -0.6380 5.3480 2.3582 0.4875 -2.8863 13.5448 1.9272 -12.6018 13.4945 2.0584 -11.7658 -5.2893 -0.2546 6.6859 3.1428 0.0464 -4.8250 12.2782 1.4303 -13.2243 11.5883 1.6573 -10.7618 -5.9268 -0.5683 8.8355 5.4712 0.2404 -8.2032 7.1826 0.5583 -9.2906 -13.6892 -1.8217 13.5707 -8.6840 0.3671 16.9748 -12.1037 -0.8142 16.3682 7.7343 -0.6080 -16.7450 7.0520 -0.7670 -16.4556 8.6979 -0.1359 -15.7706 6.6426 -0.5045 -14.2790 10.0411 0.6215 -13.8675 -10.6184 -1.1242 12.1299 -8.3198 -0.1273 13.6372 4.9137 0.4206 -6.1031 -7.7889 -0.6209 9.9463 10.6566 1.0070 -12.7815 10.0312 1.0529 -11.4481 8.1617 0.5210 -11.1885 -11.7332 -1.1956 13.6406 -9.4199 -0.1818 15.2222 -8.7759 -0.6035 11.8673 8.8080 0.1999 -14.0892 -11.0620 -0.7150 15.1178 7.7406 0.0594 -13.0316
-15.9701 -1.7901 14.9835 -9.3275 -0.2203 19.6563 -12.2746 -0.3682 18.3191 5.8156 0.7893 -5.7054 -8.6605 0.1716 9.4045 -1.4991 -0.5658 1.9089 -0.0305 0.2022 0.4112 -2.6427 0.1175 3.6641 0.7543 -0.2454 -1.6073 -3.7300 -0.7149 5.4208 2.4789 0.2736 -2.9139 13.7754 1.9814 -12.8932 13.7658 2.1238 -12.1512 -5.2821 -0.1424 6.9536 3.1410 0.0432 -5.0059 12.4959 1.4616 -13.4873 11.8624 1.7036 -11.0446 -6.0796 -0.6876 9.0096 5.5930 0.2352 -8.4008 7.3503 0.6022 -9.4996 -14.0396 -1.4917 13.8037 -8.8411 -0.2623 17.4496 -12.3277 -1.0163 16.6611 7.9467 -0.5628 -17.0151 7.3305 -0.7117 -16.7760 8.9178 -0.0835 -16.0230 6.8698 -0.4551 -14.6012 10.2416 0.6639 -14.0961 -10.8459 -0.8934 12.3806 -8.4674 -0.3350 13.9875 4.9297 0.3938 -6.3081 -7.9047 -0.3604 10.2139 10.8590 1.0428 -13.0328 10.2428 1.0932 -11.6943 8.3648 0.5694 -11.4139 -11.9839 -1.0599 13.8987 -9.5814 -0.4920 15.5882 -8.9536 -0.5299 12.1480 9.0254 0.2517 -14.3280 -11.2738 -0.8422 15.4215 7.9551 0.1109 -13.2869
-12.5932 3.0584 18.3271 -13.8630 -4.8589 16.6934 -12.7450 -2.0932 18.2138 5.5922 1.4102 -5.9915 -8.0097 0.9390 10.2757 -1.2650 -0.3971 2.1498 -0.3177 0.2404 0.2209 -3.0560 -0.2081 3.4741 0.9934 -0.3523 -1.4835 -3.7684 -0.5165 5.5635 2.4763 0.3897 -2.9993 12.6846 4.0432 -14.0465 12.5431 4.3871 -13.4880 -5.4840 -0.1849 7.0169 3.3609 -0.0857 -4.9940 11.9076 2.7293 -14.2303 10.9232 3.5221 -12.0978 -6.5778 -0.9176 8.9048 5.9449 0.0581 -8.3927 7.4590 0.7957 -9.6912 -11.3521 2.3187 16.4718 -12.3360 -3.9519 15.1864 -12.5902 -0.7623 16.9150 9.8126 -2.6519 -16.2365 9.3861 -2.9853 -15.9518 10.1719 -1.3762 -15.5517 8.4822 -2.2423 -13.9529 10.5563 0.6579 -14.2236 -9.8146 0.7468 13.6192 -10.2498 -2.1137 12.9946 5.0072 0.5195 -6.4274 -7.9454 -0.2379 10.5087 10.7000 1.6985 -13.4650 9.9642 1.9266 -12.2100 8.6356 0.5954 -11.5532 -10.9446 0.6904 15.1854 -11.4062 -2.2386 14.5818 -9.2591 -0.6087 12.2801 9.8008 -0.4138 -14.1379 -11.6579 -0.8195 15.5804 8.8333 -0.7105 -13.0386
-12.2991 2.9218 18.6835 -14.2575 -4.7257 16.5408 -13.1710 -2.0919 18.1582 5.2660 1.6580 -6.2786 -7.8938 1.0113 10.4908 -1.7022 0.0234 1.8800 0.1048 -0.3249 0.5124 -2.5535 -0.6443 3.8506 0.7723 -0.1519 -1.6651 -4.3600 -0.2576 5.1789 2.5909 0.2714 -2.9566 12.5682 4.1666 -14.2487 12.3698 4.5410 -13.7062 -5.1269 -0.2713 7.3722 3.4220 -0.1446 -5.0094 11.9089 2.7744 -14.3775 10.8805 3.6405 -12.3222 -6.7543 -0.8876 8.8423 6.0980 -0.0270 -8.3812 7.4679 0.8210 -9.8031 -11.1695 2.2059 16.8287 -12.7247 -3.8618 15.1135 -12.6635 -0.7974 17.0367 10.1132 -2.7856 -16.1455 9.7002 -3.1301 -15.8452 10.4175 -1.4467 -15.5389 8.7629 -2.3629 -13.9770 10.6549 0.6502 -14.2754 -9.7638 0.6941 13.7911 -10.4418 -2.0333 12.9827 4.9635 0.5970 -6.5251 -7.9875 -0.1663 10.5956 10.7417 1.7200 -13.5852 9.9832 1.9762 -12.3566 8.6876 0.6004 -11.6271 -10.8990 0.6441 15.4002 -11.6166 -2.1861 14.5893 -9.3382 -0.5857 12.3666 9.9707 -0.4492 -14.1751 -11.7239 -0.8267 15.6740 9.0020 -0.7588 -13.0886

$$$$
CHEMBL544126
 OpenBabel02201516223D

 31 33  0  0  1  0  0  0  0  0999 V2000
    1.3417   -1.4580    2.5329 C   0  0  0  0  0
    4.4251   -5.9643   -3.5100 C   0  0  0  0  0
    2.2932   -2.6052    0.2856 O   0  0  0  0  0
    4.3946   -8.5017   -2.1083 C   0  0  0  0  0
    4.3908  -10.0300   -2.1804 C   0  0  0  0  0
    3.2178   -7.9501   -2.9157 C   0  0  0  0  0
    2.0263   -5.9578   -3.5201 C   0  0  0  0  0
    7.9476  -14.4568    0.1488 C   0  0  0  0  0
    0.6647   -1.4306    1.2340 N   0  0  0  0  0
    5.4898  -10.5452   -1.4263 O   0  0  0  0  0
    0.6033   -2.0111   -1.0254 O   0  0  0  0  0
   11.3569  -14.8882   -2.3885 C   0  0  0  0  0
   10.4267  -15.9071   -2.3015 C   0  0  0  0  0
   11.1835  -13.7295   -1.6549 C   0  0  0  0  0
    2.5155   -2.2600   -4.1108 C   0  0  0  0  0
    4.8820  -14.0820   -2.0247 C   0  0  0  0  0
    9.3234  -15.7674   -1.4806 C   0  0  0  0  0
   10.0780  -13.5881   -0.8372 C   0  0  0  0  0
    2.5698   -3.6326   -4.2698 C   0  0  0  0  0
    5.9216  -14.6463   -1.3084 C   0  0  0  0  0
    4.7352  -12.7092   -2.0656 C   0  0  0  0  0
    1.8577   -1.7147   -3.0256 C   0  0  0  0  0
    1.3125   -3.9220   -2.2526 C   0  0  0  0  0
    6.6769  -12.4645   -0.6738 C   0  0  0  0  0
    3.2215   -6.4828   -2.8465 N   0  0  0  0  0
    1.2257   -2.0363    0.1687 C   0  0  0  0  0
    1.9661   -4.4624   -3.3434 C   0  0  0  0  0
    9.1505  -14.6091   -0.7462 C   0  0  0  0  0
    6.8161  -13.8385   -0.6312 C   0  0  0  0  0
    5.6319  -11.8962   -1.3872 C   0  0  0  0  0
    1.2514   -2.5454   -2.0942 C   0  0  0  0  0
  1  9  1  0  0  0
  2 25  1  0  0  0
  3 26  2  0  0  0
  4  5  1  0  0  0
  4  6  1  0  0  0
  5 10  1  0  0  0
  6 25  1  0  0  0
  7 25  1  0  0  0
  7 27  1  0  0  0
  8 28  1  0  0  0
  8 29  1  0  0  0
  9 26  1  0  0  0
 10 30  1  0  0  0
 11 26  1  0  0  0
 11 31  1  0  0  0
 12 13  1  0  0  0
 12 14  2  0  0  0
 13 17  2  0  0  0
 14 18  1  0  0  0
 15 19  1  0  0  0
 15 22  2  0  0  0
 16 20  1  0  0  0
 16 21  2  0  0  0
 17 28  1  0  0  0
 18 28  2  0  0  0
 19 27  2  0  0  0
 20 29  2  0  0  0
 21 30  1  0  0  0
 22 31  1  0  0  0
 23 27  1  0  0  0
 23 31  2  0  0  0
 24 29  1  0  0  0
 24 30  2  0  0  0
M  CHG  1  13   1
M  END

>  <MOLID> (CHEMBL544126)
CHEMBL544126

>  <SMILES_CANONICAL> (CHEMBL544126)
CNC(=O)Oc1cccc(c1)CN(CCCOc1cccc(c1)Cc1ccc[c+]c1)C	CHEMBL544126

>  <FINGERPRINT> (CHEMBL544126)
0000010000000000000000000000000001000110000000000000000000001000011000000001000000000001000010000000000000000001000001100000000000000000000000000001000000000000000000100000000000000000000000000000001000000000000000000000000000000011000000000001000000000000000001000000000000000010000000000000000000001000000010000100000000001000001000000000000000000000010000000000000010000000000000000000000010000000100010100000001000100000000000000000000010000000000000010000000100000100000000010000000000011000001000000000100000000000001000100000000000000000000000100000000000000000000000000000000010001000000000000000000000000000000000100000001000000000000000000000000000000000000000000001100000000000100011000001000000010001000000000000000010000000000000000100011010100000000100000000000000000000000000000000000111100000000000010000000000000010000000000000000000000000000000001100000000000000000000000000000000000000000000000000001110000000000000000000011000000000000000110010000000000100000000000000000000010000000000000000011001000000

>  <MACCS166> (CHEMBL544126)
000000000000000000000010000000000000000000000000110000000000000000000000000100000000110000001000101100000101111010111100011011111011000101011110111110111111111110111000

>  <OB_MW> (CHEMBL544126)
417.218

>  <OB_logP> (CHEMBL544126)
5.0876

>  <OB_PSA> (CHEMBL544126)
50.8

>  <OB_MR> (CHEMBL544126)
122.524

>  <OB_ATOMIC_CHARGES> (CHEMBL544126)
0.1421491018 0.0898958466 -0.2241381043 0.0646384097 0.2068411653 0.0762610828 0.0992816394 0.0570087042 -0.1664999545 -0.4754232279 -0.409115336 0.2548916782 0.3698923605 0.0553153104 0.0028550183 0.0027999683 0.2508660077 0.0045848011 -0.002717027 -0.003734769 0.0368775883 0.0376343529 0.0347396426 0.0329671994 -0.2676244687 0.4257289765 -0.0031076891 0.0337041693 -0.0146368656 0.1382467666 0.1498176521

>  <MCT_HBD> (CHEMBL544126)
1

>  <MCT_HBA> (CHEMBL544126)
5

>  <ENSEMBLE_TOTAL> (CHEMBL544126)
50

>  <ENSEMBLE_RMSD> (CHEMBL544126)
0.042 0.055 0.057 0.057 0.060 0.060 0.242 2.022 2.042 2.452 2.453 2.453 2.454 2.454 2.454 2.459 2.460 2.460 2.462 2.465 2.469 2.471 2.476 2.536 2.667 2.805 3.083 3.138 3.157 3.161 3.162 3.168 3.177 3.189 3.199 3.214 3.216 3.217 3.245 3.259 3.265 3.265 3.268 3.273 3.287 3.288 3.289 3.289 3.290 3.292

>  <ENSEMBLE_COORDS> (CHEMBL544126)
-3.4449 7.1357 4.1837 -0.4506 2.5901 -1.8742 -2.5323 5.9672 1.9538 -0.4019 0.0886 -0.4529 -0.4112 -1.4470 -0.5110 -1.5769 0.6442 -1.2465 -2.7524 2.6451 -1.8297 3.1901 -5.8518 1.7929 -4.1931 7.1826 2.9002 0.6984 -1.9523 0.2413 -4.1905 6.5790 0.6757 6.5357 -6.3532 -0.6351 5.6269 -7.3592 -0.5362 6.3564 -5.1806 0.0028 -2.3103 6.3191 -2.4525 0.0936 -5.4909 -0.3650 4.5297 -7.1748 0.1744 5.2563 -5.0291 0.8157 -2.2401 4.9506 -2.6114 1.1235 -6.0626 0.3328 -0.0737 -4.1280 -0.4118 -2.9699 6.8638 -1.3413 -3.4796 4.6685 -0.5577 1.8804 -3.8840 0.9743 -1.5744 2.1193 -1.1649 -3.5508 6.5575 1.8258 -2.8273 4.1290 -1.6581 4.3747 -6.0085 0.8933 2.0459 -5.2415 1.0192 0.8183 -3.3209 0.2560 -3.5502 6.0438 -0.3937
-3.4625 7.1211 4.1621 -0.4279 2.6074 -1.8270 -2.5100 5.9704 1.9390 -0.4008 0.0764 -0.4449 -0.4167 -1.4353 -0.5013 -1.6032 0.6237 -1.2310 -2.7807 2.6284 -1.8111 3.1480 -5.8616 1.7432 -4.1729 7.1471 2.8994 0.6981 -1.9452 0.2409 -4.1931 6.5726 0.6371 6.4847 -6.3595 -0.6788 5.5827 -7.3554 -0.5610 6.3296 -5.1834 0.0732 -2.2872 6.3309 -2.4157 0.1441 -5.4631 -0.3140 4.5728 -7.1305 0.1811 5.2352 -5.0376 0.7949 -2.2193 4.9516 -2.5957 1.1864 -6.0373 0.3777 -0.0227 -4.0958 -0.3464 -2.9383 6.8681 -1.3362 -3.4956 4.6560 -0.5801 1.8337 -3.9059 0.9201 -1.5943 2.1066 -1.1746 -3.5519 6.5504 1.8148 -2.8330 4.1258 -1.6656 4.4172 -5.9778 0.8852 2.0039 -5.2655 0.9777 0.8210 -3.3176 0.2485 -3.5470 6.0349 -0.4115
-3.4523 7.1239 4.1539 -0.4097 2.6154 -1.8119 -2.5131 5.9681 1.9311 -0.4070 0.0734 -0.4378 -0.4232 -1.4418 -0.4955 -1.6009 0.6278 -1.2370 -2.7844 2.6238 -1.8268 3.1865 -5.8386 1.7415 -4.1961 7.1283 2.8975 0.7144 -1.9307 0.2519 -4.2022 6.5675 0.6322 6.4654 -6.3705 -0.6747 5.5786 -7.3543 -0.5482 6.3116 -5.1948 0.0572 -2.2766 6.3314 -2.4119 0.1539 -5.4575 -0.3256 4.5334 -7.1514 0.1946 5.2212 -5.0433 0.7773 -2.2181 4.9537 -2.5847 1.1881 -6.0341 0.3540 -0.0036 -4.0855 -0.3580 -2.9430 6.8649 -1.3325 -3.4995 4.6551 -0.5814 1.8737 -3.8782 0.9429 -1.6030 2.1032 -1.1612 -3.5517 6.5486 1.8043 -2.8378 4.1229 -1.6581 4.3662 -6.0088 0.8737 2.0424 -5.2441 0.9836 0.8383 -3.3085 0.2632 -3.5517 6.0340 -0.4136
-3.4525 7.1243 4.1511 -0.4067 2.6166 -1.8136 -2.5136 5.9680 1.9304 -0.4070 0.0741 -0.4375 -0.4223 -1.4419 -0.4969 -1.5983 0.6294 -1.2378 -2.7851 2.6233 -1.8269 3.1856 -5.8391 1.7416 -4.1969 7.1272 2.8983 0.7188 -1.9282 0.2516 -4.2023 6.5674 0.6316 6.4657 -6.3701 -0.6716 5.5772 -7.3553 -0.5485 6.3120 -5.1945 0.0508 -2.2769 6.3310 -2.4124 0.1525 -5.4577 -0.3252 4.5295 -7.1537 0.1964 5.2158 -5.0471 0.7798 -2.2195 4.9534 -2.5830 1.1828 -6.0360 0.3509 0.0009 -4.0837 -0.3548 -2.9441 6.8650 -1.3314 -3.5006 4.6545 -0.5813 1.8767 -3.8763 0.9437 -1.6023 2.1038 -1.1591 -3.5518 6.5478 1.8066 -2.8382 4.1225 -1.6583 4.3677 -6.0080 0.8740 2.0461 -5.2423 0.9839 0.8409 -3.3070 0.2618 -3.5539 6.0328 -0.4141
-3.4650 7.1216 4.1503 -0.4122 2.6141 -1.8204 -2.5113 5.9690 1.9378 -0.4003 0.0779 -0.4482 -0.4164 -1.4345 -0.5068 -1.6002 0.6272 -1.2372 -2.7894 2.6225 -1.8123 3.1816 -5.8417 1.7419 -4.1687 7.1454 2.8998 0.7051 -1.9376 0.2266 -4.1989 6.5692 0.6365 6.4334 -6.4017 -0.6562 5.6063 -7.3358 -0.5588 6.3269 -5.1817 0.0619 -2.2818 6.3296 -2.4225 0.1577 -5.4566 -0.3312 4.5802 -7.1238 0.1766 5.2029 -5.0599 0.7920 -2.2214 4.9514 -2.5912 1.1770 -6.0396 0.3603 0.0023 -4.0863 -0.3445 -2.9487 6.8624 -1.3372 -3.4963 4.6565 -0.5784 1.8530 -3.8905 0.9385 -1.5959 2.1084 -1.1613 -3.5498 6.5495 1.8165 -2.8425 4.1216 -1.6566 4.3840 -5.9980 0.8797 2.0160 -5.2580 0.9810 0.8263 -3.3134 0.2722 -3.5538 6.0327 -0.4088
-3.4469 7.1165 4.2042 -0.4352 2.6086 -1.8272 -2.5173 5.9706 1.9396 -0.4054 0.0721 -0.4521 -0.4317 -1.4400 -0.5060 -1.5984 0.6308 -1.2423 -2.7728 2.6297 -1.8511 3.1973 -5.8312 1.7651 -4.1805 7.1497 2.8952 0.6831 -1.9523 0.2278 -4.1951 6.5734 0.6514 6.4313 -6.4198 -0.6605 5.6271 -7.3275 -0.5514 6.3413 -5.1760 0.0915 -2.2847 6.3388 -2.4212 0.1558 -5.4634 -0.2963 4.5735 -7.1327 0.1645 5.2400 -5.0371 0.7834 -2.2219 4.9529 -2.6005 1.1767 -6.0414 0.3705 -0.0199 -4.0939 -0.3497 -2.9412 6.8714 -1.3386 -3.4945 4.6578 -0.5766 1.8421 -3.9009 0.9316 -1.5970 2.1075 -1.1805 -3.5566 6.5525 1.8158 -2.8320 4.1305 -1.6745 4.3923 -5.9986 0.8608 2.0170 -5.2599 0.9868 0.8019 -3.3262 0.2458 -3.5481 6.0378 -0.4058
-3.2748 7.2085 4.2377 -0.6504 2.5950 -2.0193 -2.5167 5.9618 2.0174 -0.3346 0.1292 -0.6342 -0.3688 -1.4253 -0.6247 -1.5809 0.6667 -1.3133 -2.8311 2.6212 -1.8180 3.0820 -5.9168 1.7664 -3.7793 7.6647 2.9642 0.8291 -1.8997 0.0044 -4.3019 6.5629 0.8284 6.7397 -6.4668 -0.3073 5.7479 -7.4590 -0.3386 6.4821 -5.3137 0.3229 -2.5580 6.3230 -2.4575 0.1421 -5.5031 -0.5723 4.5268 -7.2371 0.2354 5.2541 -5.1191 0.9831 -2.4563 4.9618 -2.6054 1.1412 -6.0948 0.2196 0.0247 -4.1261 -0.6540 -3.1649 6.8672 -1.3321 -3.5866 4.6330 -0.4619 1.9168 -3.8854 0.8561 -1.6257 2.1349 -1.2395 -3.4672 6.6664 1.9094 -2.9525 4.0962 -1.6312 4.3040 -6.0776 0.9645 2.0408 -5.2955 0.9366 0.9102 -3.2964 0.0588 -3.6915 6.0239 -0.2954
-3.1946 10.2278 3.2024 -1.0082 2.7303 -1.9241 -3.0125 7.5933 2.4810 -0.9026 -0.4911 -0.5968 0.4519 -1.2706 -0.9689 -0.6770 1.0795 -0.3343 -2.2246 3.0082 -0.0129 4.6115 -5.8920 -0.8629 -4.0678 9.7142 2.2031 0.6416 -2.5052 -0.0900 -3.8790 7.9491 0.3137 6.2023 -8.0338 2.4923 5.7672 -8.7521 1.3617 5.7875 -6.7434 2.6471 -5.2268 4.9900 -1.7180 1.0108 -5.6703 -2.2682 5.0036 -8.1108 0.3581 5.0771 -6.0578 1.5763 -4.3541 3.9310 -1.3782 2.3452 -6.1015 -2.0060 0.4564 -4.4846 -1.6333 -5.0479 6.2808 -1.1537 -3.0680 5.5148 0.1481 2.6363 -4.1620 -0.4445 -1.7429 2.0233 -1.0071 -3.6169 8.2960 1.7012 -3.2405 4.1270 -0.4498 4.8335 -6.6841 0.3936 3.1884 -5.3927 -1.1054 1.2172 -3.7017 -0.7304 -3.9672 6.5885 -0.1939
-2.3820 9.0889 3.3588 -2.6310 1.5830 0.1507 -3.0005 6.7552 2.1967 -0.8316 -0.3179 -0.4916 0.2877 -1.2075 -1.2060 -0.9290 1.0001 -1.1082 -2.0618 3.0871 -1.2465 4.6357 -5.6104 -0.8256 -3.0594 9.0886 2.0886 0.8207 -2.1900 -0.3169 -3.1737 7.6258 0.1506 5.3701 -7.5714 2.8694 4.7769 -8.2795 1.7716 5.5914 -6.2317 2.6982 -5.3976 4.8555 -1.0117 1.2409 -5.3603 -2.3413 4.3595 -7.6513 0.6420 5.1586 -5.5419 1.5241 -4.5101 3.8730 -1.2488 2.4977 -5.7569 -1.9969 0.6650 -4.1742 -1.7926 -5.0033 6.1039 -0.5569 -2.6395 5.4012 -0.5455 2.7713 -3.8284 -0.4991 -2.1964 1.7413 -0.9220 -3.0564 7.7253 1.4979 -3.0429 3.9945 -1.0326 4.6444 -6.2171 0.4337 3.3040 -5.0426 -1.0712 1.3588 -3.3273 -0.8762 -3.5676 6.3850 -0.2926
-3.4637 7.0973 4.2578 -2.5489 1.4282 -1.5989 -3.4412 5.4057 2.2016 -0.1311 0.2479 -0.6483 1.2023 -0.4773 -0.9217 -0.2616 1.4607 -1.5599 -1.5771 3.3670 -2.0750 4.2504 -5.2195 1.5354 -3.8961 7.5590 2.9415 1.2876 -1.6178 -0.0439 -3.5678 6.9760 0.6420 2.5265 -8.9297 0.4395 3.7936 -8.5814 -0.0093 1.8401 -8.0609 1.1933 -5.0680 4.7829 -1.9206 4.5101 -2.8681 -1.3924 4.3076 -7.3517 0.2589 2.3904 -6.8158 1.5287 -3.9827 4.0122 -2.2795 4.7967 -3.8829 -0.4748 3.3586 -2.1098 -1.2666 -4.9456 5.7684 -0.9544 -2.6026 5.2109 -0.6915 2.7545 -3.3776 0.7110 -1.4936 2.2042 -1.2548 -3.6082 6.5562 1.9163 -2.7484 4.2110 -1.6769 3.6233 -6.4829 1.0925 3.9306 -4.1460 0.5756 2.4608 -2.3562 -0.2093 -3.6964 5.9900 -0.3161
-4.2441 6.6538 4.2017 -2.2823 1.4926 -1.6971 -3.8888 5.1431 2.0279 0.0761 0.3637 -0.4803 1.4081 -0.3409 -0.6273 0.0752 1.6322 -1.3454 -1.1794 3.5877 -1.9188 3.8221 -5.4564 1.7036 -4.0534 7.2148 2.8914 1.3952 -1.5220 0.1945 -3.7540 6.8361 0.6068 2.5563 -8.7236 -0.4055 3.7877 -8.4266 -0.4364 1.6173 -8.0072 0.3718 -4.7355 4.8579 -2.2605 4.6940 -2.7364 -0.6238 4.1550 -7.3790 0.2043 2.0968 -6.9214 0.9989 -3.5677 4.1439 -2.5020 4.7915 -3.8736 0.1184 3.5575 -1.9547 -0.5851 -4.7890 5.7587 -1.2158 -2.5180 5.2432 -0.6431 2.6414 -3.4180 0.8857 -1.2191 2.3341 -1.1856 -3.9274 6.3231 1.8408 -2.4589 4.3515 -1.6810 3.3127 -6.6402 0.9486 3.7690 -4.2083 0.8653 2.5484 -2.2808 0.1494 -3.6868 5.9528 -0.4018
-4.2525 6.6443 4.2069 -2.2788 1.4953 -1.6912 -3.8889 5.1431 2.0222 0.0819 0.3663 -0.4677 1.4164 -0.3381 -0.6162 0.0779 1.6340 -1.3473 -1.1801 3.5856 -1.9299 3.8125 -5.4639 1.6988 -4.0425 7.2207 2.8864 1.3935 -1.5233 0.2052 -3.7556 6.8350 0.6047 2.5263 -8.7336 -0.4208 3.8112 -8.4139 -0.4355 1.6253 -8.0034 0.3694 -4.7335 4.8590 -2.2521 4.6959 -2.7350 -0.6168 4.1803 -7.3626 0.2194 2.0700 -6.9325 0.9790 -3.5663 4.1452 -2.4987 4.7843 -3.8784 0.1207 3.5601 -1.9493 -0.5823 -4.7906 5.7571 -1.2135 -2.5161 5.2447 -0.6439 2.6311 -3.4242 0.8884 -1.2135 2.3367 -1.1894 -3.9307 6.3219 1.8285 -2.4590 4.3499 -1.6841 3.3318 -6.6292 0.9418 3.7519 -4.2193 0.8703 2.5457 -2.2845 0.1509 -3.6880 5.9524 -0.4032
-4.2546 6.6430 4.2065 -2.2795 1.4947 -1.6911 -3.8898 5.1427 2.0214 0.0828 0.3669 -0.4683 1.4171 -0.3379 -0.6157 0.0776 1.6340 -1.3467 -1.1806 3.5853 -1.9302 3.8124 -5.4639 1.6990 -4.0396 7.2224 2.8865 1.3917 -1.5245 0.2065 -3.7550 6.8355 0.6041 2.5242 -8.7343 -0.4203 3.8111 -8.4140 -0.4347 1.6262 -8.0032 0.3663 -4.7339 4.8585 -2.2523 4.6961 -2.7347 -0.6176 4.1846 -7.3601 0.2186 2.0709 -6.9320 0.9800 -3.5663 4.1452 -2.4982 4.7847 -3.8780 0.1211 3.5599 -1.9494 -0.5849 -4.7904 5.7573 -1.2129 -2.5158 5.2448 -0.6444 2.6289 -3.4254 0.8906 -1.2126 2.3371 -1.1883 -3.9305 6.3219 1.8286 -2.4589 4.3500 -1.6835 3.3301 -6.6302 0.9411 3.7520 -4.2192 0.8712 2.5451 -2.2850 0.1516 -3.6880 5.9525 -0.4038
-4.2597 6.6397 4.2060 -2.2816 1.4930 -1.6902 -3.8922 5.1413 2.0200 0.0841 0.3679 -0.4702 1.4186 -0.3378 -0.6145 0.0773 1.6340 -1.3457 -1.1820 3.5845 -1.9310 3.8128 -5.4629 1.7018 -4.0318 7.2267 2.8872 1.3868 -1.5274 0.2088 -3.7533 6.8367 0.6027 2.5187 -8.7363 -0.4182 3.8117 -8.4137 -0.4329 1.6288 -8.0027 0.3587 -4.7344 4.8577 -2.2526 4.6961 -2.7341 -0.6215 4.1940 -7.3550 0.2160 2.0725 -6.9311 0.9822 -3.5668 4.1453 -2.4967 4.7854 -3.8773 0.1203 3.5602 -1.9488 -0.5909 -4.7896 5.7578 -1.2126 -2.5155 5.2451 -0.6455 2.6240 -3.4282 0.8957 -1.2116 2.3378 -1.1858 -3.9288 6.3224 1.8287 -2.4588 4.3501 -1.6823 3.3295 -6.6304 0.9409 3.7512 -4.2195 0.8735 2.5419 -2.2873 0.1533 -3.6875 5.9526 -0.4053
-4.2486 6.6472 4.2096 -2.2770 1.4974 -1.6910 -3.8870 5.1443 2.0250 0.0789 0.3647 -0.4643 1.4142 -0.3388 -0.6150 0.0834 1.6367 -1.3522 -1.1769 3.5879 -1.9284 3.8137 -5.4624 1.7019 -4.0522 7.2156 2.8882 1.3989 -1.5194 0.2031 -3.7593 6.8329 0.6082 2.5293 -8.7323 -0.4212 3.8134 -8.4126 -0.4366 1.6202 -8.0048 0.3791 -4.7336 4.8600 -2.2501 4.6960 -2.7354 -0.6114 4.1637 -7.3720 0.2243 2.0655 -6.9377 0.9626 -3.5684 4.1440 -2.4990 4.7836 -3.8813 0.1084 3.5679 -1.9443 -0.5665 -4.7893 5.7571 -1.2206 -2.5171 5.2441 -0.6412 2.6367 -3.4211 0.8823 -1.2176 2.3341 -1.1955 -3.9299 6.3234 1.8271 -2.4575 4.3494 -1.6909 3.3429 -6.6227 0.9481 3.7488 -4.2216 0.8688 2.5451 -2.2851 0.1476 -3.6879 5.9527 -0.4000
-4.2268 6.6485 4.2595 -2.2709 1.5087 -1.7023 -3.8807 5.1536 2.0327 0.0800 0.3627 -0.4864 1.4153 -0.3322 -0.6309 0.0665 1.6293 -1.3554 -1.2047 3.5696 -1.9595 3.8090 -5.4641 1.7244 -4.0520 7.2278 2.8856 1.4243 -1.5074 0.1741 -3.7598 6.8343 0.6237 2.5882 -8.7270 -0.3958 3.7587 -8.4472 -0.4254 1.5995 -8.0185 0.4234 -4.7474 4.8632 -2.2531 4.7001 -2.7389 -0.6030 4.1477 -7.3877 0.1940 2.0635 -6.9423 0.9961 -3.5766 4.1406 -2.5098 4.7988 -3.8699 0.1218 3.5729 -1.9399 -0.5912 -4.8030 5.7551 -1.2127 -2.5235 5.2400 -0.6410 2.6673 -3.4062 0.8738 -1.2279 2.3284 -1.2084 -3.9207 6.3344 1.8413 -2.4783 4.3428 -1.6996 3.3117 -6.6471 0.9310 3.7860 -4.1994 0.8639 2.5777 -2.2608 0.1233 -3.6948 5.9498 -0.3942
-4.1389 10.8835 3.7090 -2.8586 1.8892 -2.4505 -3.7937 8.1258 2.9461 0.0053 0.2288 -0.9439 0.0819 -1.4563 -0.8386 -1.5314 0.8900 -0.5877 -2.8542 3.2081 -0.2641 3.4905 -7.1074 0.8055 -4.7996 10.3022 2.5061 1.5512 -2.0394 -0.5146 -3.8029 8.6465 0.5881 7.3247 -9.3082 1.7921 7.1338 -7.9819 2.2521 6.5494 -9.7746 0.7704 -5.3241 6.0508 -2.0227 1.9452 -5.3776 -2.6425 6.0748 -7.1829 1.7548 5.3900 -8.9888 0.2781 -4.6690 4.8074 -1.7280 2.5156 -6.3519 -1.7137 1.6413 -4.0025 -2.2473 -5.0251 7.2500 -1.2684 -3.3468 5.9757 0.1587 2.4991 -4.5564 0.0896 -1.9880 2.2766 -1.3274 -4.1207 8.9123 2.0646 -3.6530 4.6852 -0.6456 5.0433 -7.7515 0.8843 2.8305 -6.0032 -0.3187 1.8836 -3.5310 -0.9228 -4.0542 7.2817 -0.1630
-4.2175 6.6512 4.2729 -2.2688 1.5119 -1.7004 -3.8802 5.1547 2.0355 0.0777 0.3573 -0.5043 1.4121 -0.3321 -0.6345 0.0694 1.6302 -1.3593 -1.2032 3.5702 -1.9618 3.7984 -5.4685 1.7332 -4.0569 7.2281 2.8850 1.4292 -1.5032 0.1697 -3.7674 6.8302 0.6302 2.6123 -8.7220 -0.3773 3.7493 -8.4510 -0.4372 1.5894 -8.0227 0.4451 -4.7459 4.8675 -2.2507 4.7036 -2.7364 -0.5890 4.1185 -7.4058 0.1900 2.0547 -6.9491 0.9827 -3.5800 4.1380 -2.5139 4.7972 -3.8711 0.1100 3.5709 -1.9423 -0.5741 -4.8072 5.7515 -1.2201 -2.5266 5.2381 -0.6394 2.6809 -3.3978 0.8676 -1.2263 2.3297 -1.2128 -3.9187 6.3363 1.8409 -2.4792 4.3426 -1.7027 3.3295 -6.6392 0.9236 3.7991 -4.1896 0.8633 2.5860 -2.2538 0.1185 -3.7002 5.9472 -0.3905
-4.2225 6.6457 4.2836 -2.2671 1.5154 -1.6992 -3.8816 5.1545 2.0375 0.0810 0.3567 -0.5131 1.4093 -0.3324 -0.6302 0.0706 1.6300 -1.3639 -1.2013 3.5707 -1.9667 3.7863 -5.4748 1.7380 -4.0693 7.2224 2.8885 1.4315 -1.5034 0.1517 -3.7710 6.8281 0.6374 2.6315 -8.7178 -0.3697 3.7466 -8.4521 -0.4424 1.5765 -8.0268 0.4468 -4.7418 4.8736 -2.2508 4.7161 -2.7309 -0.5526 4.0822 -7.4269 0.1937 2.0501 -6.9547 0.9627 -3.5832 4.1369 -2.5131 4.7927 -3.8752 0.0964 3.5721 -1.9409 -0.5634 -4.8052 5.7523 -1.2315 -2.5244 5.2393 -0.6358 2.6902 -3.3898 0.8704 -1.2304 2.3262 -1.2217 -3.9171 6.3380 1.8427 -2.4771 4.3429 -1.7118 3.3422 -6.6320 0.9249 3.8179 -4.1751 0.8678 2.5932 -2.2487 0.1104 -3.6978 5.9489 -0.3865
-4.3315 10.7167 3.8679 -2.6585 2.0120 -2.5988 -3.0136 8.5668 2.4706 -0.8008 -0.2627 -0.4432 0.4175 -1.2452 -1.0832 -0.8162 1.3298 -1.0746 -2.0478 3.7004 -0.8057 5.0168 -6.1765 -0.2200 -4.7128 10.3143 2.4941 0.8842 -2.4319 -0.1066 -5.0476 7.8477 1.4061 6.7892 -9.5920 2.1696 6.2900 -8.4427 2.8286 6.4101 -9.8282 0.8849 -4.9885 6.2598 -2.2356 1.5180 -5.6326 -2.3683 5.5090 -7.4839 2.1398 5.6706 -8.8037 0.1067 -3.9953 5.2237 -2.1669 2.7848 -6.1829 -1.8976 0.9222 -4.4333 -1.7904 -5.2933 7.0712 -1.0827 -3.5794 5.8113 0.3115 2.9077 -4.3003 -0.1934 -2.2503 2.1078 -1.1953 -4.1409 8.8558 2.1100 -3.2417 4.9262 -0.9175 5.3408 -7.5446 0.6881 3.5376 -5.5685 -0.7940 1.5445 -3.7215 -0.7240 -4.6250 6.9072 0.2197
-3.7555 6.9258 4.2670 -2.4253 1.4563 -1.6516 -3.5906 5.3180 2.1514 -0.0316 0.3020 -0.5945 1.3113 -0.4178 -0.8091 -0.1168 1.5296 -1.4992 -1.4187 3.4413 -2.0375 4.0915 -5.3208 1.6391 -4.1373 7.4116 2.9475 1.3528 -1.5679 0.0687 -3.6179 6.9363 0.6432 2.4438 -8.8925 0.0868 3.7584 -8.5405 -0.2053 1.6902 -8.0721 0.8142 -4.9367 4.8020 -2.0741 4.6522 -2.7725 -1.0765 4.2518 -7.3597 0.2128 2.2301 -6.8876 1.3216 -3.8192 4.0551 -2.3848 4.8397 -3.8535 -0.2146 3.5007 -2.0054 -0.9943 -4.8818 5.7625 -1.0704 -2.5588 5.2228 -0.6769 2.7186 -3.3984 0.8133 -1.3727 2.2562 -1.2408 -3.7639 6.4598 1.9023 -2.6319 4.2558 -1.6951 3.4972 -6.5501 1.0344 3.8805 -4.1664 0.7240 2.5226 -2.3107 -0.0475 -3.6829 5.9808 -0.3541
-4.1362 6.7277 4.2474 -2.2619 1.5100 -1.7623 -3.8176 5.1977 2.0660 0.0810 0.3853 -0.4960 1.3835 -0.3728 -0.6483 0.0041 1.5917 -1.3763 -1.2727 3.5292 -1.9553 3.8704 -5.4449 1.7425 -4.1296 7.2403 2.9155 1.4402 -1.5105 0.1477 -3.7558 6.8386 0.6649 2.4922 -8.7956 -0.3024 3.7675 -8.4906 -0.3604 1.5936 -8.0513 0.3133 -4.7725 4.8459 -2.2919 4.7282 -2.7170 -0.7704 4.2801 -7.3299 0.2369 2.0861 -6.9324 1.1350 -3.6078 4.1351 -2.5210 4.8555 -3.8226 0.0243 3.6491 -1.8894 -0.7393 -4.7621 5.8061 -1.2029 -2.5810 5.2066 -0.6233 2.6618 -3.4176 0.9288 -1.2530 2.3193 -1.1872 -3.8831 6.3584 1.8605 -2.5157 4.3149 -1.6720 3.2474 -6.6843 0.9456 3.7500 -4.2251 0.9183 2.5604 -2.2792 0.1276 -3.7021 5.9564 -0.3653
-3.8791 6.8640 4.2571 -2.3581 1.4733 -1.6822 -3.6488 5.2920 2.1251 0.0278 0.3422 -0.5529 1.3662 -0.3869 -0.7524 -0.0452 1.5636 -1.4618 -1.3375 3.4799 -2.0198 4.0006 -5.3738 1.6856 -4.2772 7.3062 2.9546 1.3923 -1.5429 0.1191 -3.6449 6.9155 0.6412 2.4035 -8.8501 -0.1171 3.7641 -8.5239 -0.2470 1.6129 -8.0544 0.5839 -4.8699 4.8093 -2.1441 4.7028 -2.7471 -0.9300 4.2308 -7.3647 0.2210 2.1447 -6.9133 1.2181 -3.7332 4.0769 -2.4302 4.8433 -3.8517 -0.1003 3.5551 -1.9707 -0.8661 -4.8503 5.7570 -1.1244 -2.5341 5.2314 -0.6699 2.7014 -3.4063 0.8595 -1.3117 2.2788 -1.2311 -3.8420 6.3905 1.9001 -2.5696 4.2782 -1.7046 3.4338 -6.5787 1.0222 3.8447 -4.1764 0.7911 2.5507 -2.2927 0.0260 -3.6730 5.9751 -0.3707
-4.0080 11.0687 3.9655 -3.2185 1.8512 -2.4573 -3.1722 8.5459 2.9795 -0.3482 -0.1008 -1.5892 -0.1776 -1.6926 -1.0340 -1.5614 0.8715 -0.8057 -2.5775 3.4134 -0.4776 3.7367 -6.9341 0.8466 -4.5623 10.5429 2.7375 1.3694 -2.2326 -1.0470 -4.4695 8.5483 0.9885 7.3672 -9.3363 2.1222 7.0943 -8.0841 2.7106 6.7991 -9.6436 0.9225 -5.2477 6.2278 -2.1086 1.7735 -5.8367 -2.6648 6.1744 -7.1774 2.1090 5.7301 -8.7763 0.3477 -4.4635 5.0432 -1.9292 2.4988 -6.6346 -1.6522 1.4233 -4.4361 -2.4658 -5.1999 7.2958 -1.1451 -3.5086 6.0035 0.2943 2.5253 -4.5726 -0.1616 -2.0689 2.2864 -1.5402 -3.9643 9.0718 2.2777 -3.5514 4.8447 -0.7430 5.2702 -7.6202 1.0101 2.9222 -6.0554 -0.3613 1.7513 -3.7464 -1.2471 -4.3364 7.2647 0.1181
-4.0204 11.3119 3.8373 -3.2231 1.7614 -2.1040 -5.5238 9.0478 3.0109 -0.2818 -0.1362 -1.2779 -0.0867 -1.7212 -0.7018 -1.5025 0.8917 -0.4492 -2.7379 3.3745 -0.1316 3.8511 -7.0563 0.8455 -4.0936 10.9214 2.3766 1.4544 -2.3156 -0.9346 -4.3030 8.7555 0.8369 7.5663 -9.5510 1.7830 7.4403 -8.2496 2.3241 6.8051 -9.9148 0.7289 -4.8580 6.3816 -2.2805 1.7545 -5.9208 -2.6203 6.4375 -7.3588 1.8372 5.6818 -9.0342 0.2519 -4.2210 5.1166 -1.9233 2.5053 -6.7378 -1.6341 1.4282 -4.5200 -2.3819 -4.8461 7.4544 -1.3920 -3.5117 6.0819 0.3862 2.6161 -4.6925 -0.1197 -2.0848 2.2236 -1.2111 -4.7032 9.4282 2.1377 -3.5151 4.8780 -0.6063 5.3706 -7.8220 0.8946 2.9776 -6.1760 -0.3569 1.8116 -3.8344 -1.1689 -4.1878 7.4126 0.0433
-4.7147 11.5047 3.8046 -2.3875 2.2715 -2.6031 -3.3570 10.3982 1.5914 -0.8345 -0.4657 -0.8268 0.6203 -1.3002 -1.0911 -0.7669 1.3364 -0.8933 -2.0886 3.7775 -0.4917 4.9994 -6.3952 0.0924 -5.2629 10.2580 3.1237 0.6948 -2.8046 -0.3638 -4.9377 8.4011 1.2555 7.1139 -9.9734 1.9975 6.7180 -8.8825 2.8044 6.5434 -10.1597 0.7982 -5.4348 6.0334 -1.8829 1.9348 -5.8118 -2.7251 5.7603 -7.9188 2.3006 5.6686 -9.1021 0.1900 -4.3877 5.0149 -1.7813 3.1262 -6.3579 -2.0317 1.1732 -4.6775 -2.1775 -5.5472 7.0385 -0.9144 -3.4965 6.1063 0.4156 2.7977 -4.6080 -0.2009 -2.1645 2.1835 -1.1150 -4.3624 9.6904 1.9131 -3.3666 4.9726 -0.6535 5.4109 -7.8841 0.8573 3.6107 -5.8049 -0.7513 1.5382 -4.0286 -0.9449 -4.6010 7.1880 0.3038
-5.3323 12.4673 3.3000 -2.6974 2.3303 -2.4738 -3.8408 10.0965 3.1713 -0.7473 -0.3827 -1.1297 0.7149 -1.3046 -0.7202 -0.9219 1.3115 -0.5781 -2.3083 3.8594 -0.2034 4.7818 -6.7622 0.5659 -5.3104 11.6598 1.9591 0.4801 -3.0734 -0.9093 -5.3623 8.8698 1.2499 7.7928 -10.2359 1.6977 7.1362 -9.5223 2.7057 7.3387 -10.1857 0.4109 -5.2187 6.4122 -2.0653 2.1344 -6.3133 -2.8282 6.0359 -8.6212 2.3665 6.2526 -9.1910 -0.0351 -4.2497 5.3097 -1.8140 3.2053 -6.8480 -1.9373 1.3061 -5.1023 -2.4269 -5.4720 7.4621 -1.0199 -3.7638 6.3488 0.6363 2.6699 -4.9580 -0.1679 -2.3045 2.3108 -0.9558 -4.7224 10.1469 2.1544 -3.4763 5.1900 -0.4936 5.6666 -8.2552 0.9016 3.5337 -6.2200 -0.5747 1.4863 -4.3408 -1.1366 -4.8072 7.5416 0.3505
-5.3122 12.5001 3.3998 -3.0029 2.1946 -2.3332 -3.9255 10.0762 3.2452 -0.6837 -0.3261 -1.2525 0.5224 -1.4149 -0.4965 -1.0962 1.2421 -0.4666 -2.4491 3.8091 -0.1392 4.6946 -6.8885 0.6277 -5.5898 11.5917 2.2134 0.8545 -2.8470 -1.2773 -5.0202 9.1944 0.9257 7.6721 -10.4382 1.7413 7.5426 -9.3015 2.5509 6.9482 -10.5542 0.6155 -5.3561 6.3646 -2.0215 2.0289 -6.4463 -2.7590 6.6334 -8.2519 2.1809 5.9489 -9.4761 0.1427 -4.4487 5.2231 -1.7343 3.0457 -7.0262 -1.8263 1.3926 -5.0784 -2.4647 -5.4225 7.5519 -1.0785 -3.6377 6.4856 0.5163 2.8326 -4.8875 -0.2599 -2.2146 2.4000 -1.0380 -4.7369 10.1812 2.1884 -3.5506 5.1912 -0.4910 5.7383 -8.2641 0.9033 3.5089 -6.3038 -0.5398 1.7126 -4.2233 -1.2649 -4.6300 7.7223 0.1921
-5.2731 12.5262 3.4226 -3.0252 2.2048 -2.3209 -3.9091 10.0992 3.2366 -0.7026 -0.3240 -1.2581 0.5167 -1.4270 -0.5069 -1.0904 1.2422 -0.4516 -2.4472 3.8260 -0.1208 4.7127 -6.8739 0.6576 -5.5758 11.6151 2.2170 0.7717 -2.8941 -1.4133 -5.0567 9.2327 0.8917 7.7054 -10.4289 1.7720 7.5714 -9.2947 2.5605 6.9710 -10.5618 0.6338 -5.3651 6.3778 -1.9938 2.0361 -6.4962 -2.7488 6.6602 -8.2446 2.1935 5.9664 -9.4843 0.1602 -4.4568 5.2331 -1.7121 3.0613 -7.0696 -1.8128 1.3841 -5.1372 -2.4889 -5.4331 7.5620 -1.0699 -3.6422 6.5131 0.5244 2.8169 -4.8995 -0.2871 -2.2291 2.4079 -1.0364 -4.7368 10.2302 2.1955 -3.5541 5.2009 -0.4813 5.7725 -8.2741 0.9306 3.5103 -6.3279 -0.5490 1.6873 -4.2761 -1.3256 -4.6468 7.7428 0.1816
-5.2711 12.5303 3.4254 -3.0236 2.2059 -2.3152 -3.9122 10.1026 3.2320 -0.7011 -0.3221 -1.2531 0.5157 -1.4331 -0.5131 -1.0855 1.2431 -0.4436 -2.4453 3.8305 -0.1141 4.7183 -6.8688 0.6690 -5.5757 11.6184 2.2177 0.7574 -2.9001 -1.4370 -5.0663 9.2408 0.8844 7.7085 -10.4340 1.7697 7.5746 -9.2967 2.5603 6.9712 -10.5658 0.6299 -5.3626 6.3800 -1.9861 2.0383 -6.4950 -2.7418 6.6633 -8.2458 2.1943 5.9677 -9.4856 0.1606 -4.4545 5.2346 -1.7057 3.0660 -7.0705 -1.8053 1.3849 -5.1513 -2.4972 -5.4355 7.5616 -1.0724 -3.6460 6.5202 0.5248 2.8131 -4.9025 -0.2947 -2.2270 2.4099 -1.0306 -4.7416 10.2408 2.1957 -3.5534 5.2026 -0.4783 5.7814 -8.2782 0.9384 3.5126 -6.3283 -0.5456 1.6821 -4.2906 -1.3439 -4.6536 7.7469 0.1755
-5.2694 12.5323 3.4269 -3.0228 2.2063 -2.3120 -3.9134 10.1041 3.2290 -0.7012 -0.3214 -1.2516 0.5142 -1.4371 -0.5183 -1.0834 1.2433 -0.4401 -2.4446 3.8328 -0.1111 4.7210 -6.8665 0.6742 -5.5749 11.6201 2.2186 0.7504 -2.9026 -1.4477 -5.0708 9.2452 0.8813 7.7103 -10.4355 1.7696 7.5763 -9.2971 2.5604 6.9713 -10.5678 0.6277 -5.3613 6.3812 -1.9816 2.0394 -6.4949 -2.7381 6.6650 -8.2459 2.1948 5.9687 -9.4858 0.1615 -4.4532 5.2354 -1.7018 3.0688 -7.0709 -1.8003 1.3853 -5.1596 -2.5018 -5.4370 7.5612 -1.0740 -3.6483 6.5241 0.5245 2.8104 -4.9045 -0.2999 -2.2258 2.4110 -1.0273 -4.7435 10.2459 2.1958 -3.5530 5.2035 -0.4766 5.7855 -8.2794 0.9423 3.5137 -6.3285 -0.5439 1.6793 -4.2980 -1.3532 -4.6571 7.7492 0.1726
-5.2822 12.5375 3.4258 -3.0168 2.2112 -2.3064 -3.9284 10.1105 3.2251 -0.6960 -0.3149 -1.2427 0.5166 -1.4388 -0.5183 -1.0772 1.2473 -0.4292 -2.4439 3.8402 -0.1036 4.7238 -6.8653 0.6803 -5.5859 11.6244 2.2155 0.7495 -2.8998 -1.4515 -5.0828 9.2529 0.8751 7.7093 -10.4601 1.7513 7.5824 -9.3196 2.5566 6.9682 -10.5838 0.6103 -5.3584 6.3844 -1.9803 2.0434 -6.4901 -2.7378 6.6778 -8.2648 2.2024 5.9705 -9.4913 0.1587 -4.4498 5.2390 -1.6987 3.0751 -7.0675 -1.7952 1.3909 -5.1631 -2.5057 -5.4398 7.5629 -1.0789 -3.6544 6.5319 0.5252 2.8103 -4.9034 -0.3007 -2.2204 2.4167 -1.0177 -4.7567 10.2541 2.1926 -3.5532 5.2085 -0.4734 5.7907 -8.2855 0.9463 3.5208 -6.3263 -0.5346 1.6815 -4.3017 -1.3581 -4.6649 7.7546 0.1679
-5.2859 12.5480 3.4272 -3.0126 2.2149 -2.2952 -3.9379 10.1200 3.2177 -0.6966 -0.3136 -1.2414 0.5155 -1.4503 -0.5292 -1.0746 1.2461 -0.4262 -2.4451 3.8482 -0.0982 4.7327 -6.8657 0.6915 -5.5983 11.6464 2.2157 0.7373 -2.9057 -1.4725 -5.0946 9.2675 0.8709 7.7165 -10.4733 1.7478 7.5907 -9.3340 2.5529 6.9728 -10.5962 0.6048 -5.3571 6.3890 -1.9724 2.0502 -6.4960 -2.7313 6.6874 -8.2760 2.2037 5.9740 -9.4992 0.1561 -4.4484 5.2437 -1.6908 3.0842 -7.0708 -1.7840 1.3965 -5.1807 -2.5110 -5.4455 7.5671 -1.0818 -3.6596 6.5438 0.5281 2.8077 -4.9067 -0.3072 -2.2180 2.4218 -1.0090 -4.7673 10.2685 2.1887 -3.5546 5.2158 -0.4684 5.7998 -8.2930 0.9513 3.5245 -6.3299 -0.5325 1.6799 -4.3155 -1.3711 -4.6734 7.7656 0.1658
-5.3053 12.5674 3.4244 -2.9997 2.2186 -2.2772 -3.9697 10.1386 3.1960 -0.6915 -0.3107 -1.2337 0.5210 -1.4658 -0.5359 -1.0561 1.2488 -0.3986 -2.4369 3.8647 -0.0719 4.7448 -6.8696 0.7049 -5.6178 11.6636 2.2088 0.7304 -2.9079 -1.4868 -5.1228 9.2922 0.8557 7.7213 -10.5017 1.7311 7.5980 -9.3642 2.5396 6.9720 -10.6168 0.5853 -5.3500 6.3914 -1.9625 2.0628 -6.4979 -2.7208 6.6963 -8.3018 2.1961 5.9760 -9.5128 0.1459 -4.4384 5.2474 -1.6756 3.0993 -7.0729 -1.7687 1.4073 -5.1962 -2.5142 -5.4541 7.5702 -1.0916 -3.6747 6.5671 0.5290 2.8069 -4.9114 -0.3137 -2.2050 2.4301 -0.9848 -4.7945 10.2940 2.1779 -3.5531 5.2275 -0.4560 5.8116 -8.3098 0.9534 3.5332 -6.3352 -0.5266 1.6816 -4.3287 -1.3831 -4.6930 7.7814 0.1536
-5.3227 12.5895 3.3955 -2.9421 2.2541 -2.2988 -3.9771 10.1653 3.1723 -0.7497 -0.3450 -1.1436 0.5448 -1.4474 -0.5336 -0.9678 1.3115 -0.4544 -2.3841 3.9092 -0.1054 4.6475 -6.9543 0.7614 -5.6278 11.6825 2.1807 0.7113 -2.9165 -1.4418 -5.1653 9.2833 0.8639 7.7926 -10.4674 1.6910 7.2269 -9.6670 2.7112 7.3590 -10.3566 0.3949 -5.4019 6.3598 -1.9286 2.2978 -6.3484 -2.8728 6.1982 -8.7188 2.4195 6.3152 -9.2854 -0.0164 -4.4556 5.2378 -1.6577 3.2585 -6.9737 -1.8719 1.5754 -5.0900 -2.6117 -5.5091 7.5408 -1.0634 -3.6642 6.5876 0.5152 2.7406 -4.9561 -0.2521 -2.4165 2.3034 -0.7977 -4.8122 10.3097 2.1611 -3.5401 5.2452 -0.4631 5.7409 -8.3809 0.9820 3.5413 -6.3348 -0.5182 1.7053 -4.3150 -1.3780 -4.7190 7.7777 0.1607
-5.3822 12.5976 3.3905 -2.9719 2.2386 -2.2471 -4.0365 10.1736 3.1765 -0.6686 -0.2866 -1.1956 0.5416 -1.4532 -0.5032 -1.0398 1.2762 -0.3558 -2.4351 3.8951 -0.0417 4.7652 -6.9058 0.7072 -5.6787 11.6881 2.1772 0.7542 -2.8854 -1.4532 -5.1642 9.3152 0.8326 7.7204 -10.5834 1.6741 7.6086 -9.4551 2.5012 6.9775 -10.6812 0.5383 -5.3449 6.4000 -1.9684 2.0801 -6.4866 -2.7231 6.7260 -8.3862 2.1867 5.9872 -9.5643 0.1134 -4.4285 5.2607 -1.6676 3.1154 -7.0676 -1.7666 1.4344 -5.1855 -2.5000 -5.4656 7.5803 -1.1084 -3.6963 6.5962 0.5337 2.8290 -4.9017 -0.2804 -2.1882 2.4554 -0.9497 -4.8512 10.3244 2.1564 -3.5570 5.2523 -0.4428 5.8256 -8.3597 0.9368 3.5542 -6.3386 -0.5097 1.7085 -4.3153 -1.3526 -4.7192 7.8026 0.1410
-5.3849 12.6006 3.3881 -2.9698 2.2393 -2.2422 -4.0417 10.1767 3.1708 -0.6673 -0.2849 -1.1917 0.5430 -1.4549 -0.5025 -1.0359 1.2765 -0.3498 -2.4331 3.8982 -0.0360 4.7679 -6.9056 0.7104 -5.6847 11.6914 2.1710 0.7509 -2.8868 -1.4585 -5.1685 9.3182 0.8291 7.7220 -10.5861 1.6726 7.6103 -9.4593 2.4982 6.9766 -10.6840 0.5339 -5.3438 6.3998 -1.9657 2.0822 -6.4865 -2.7189 6.7275 -8.3895 2.1844 5.9868 -9.5663 0.1108 -4.4262 5.2610 -1.6630 3.1183 -7.0674 -1.7619 1.4356 -5.1875 -2.4989 -5.4661 7.5796 -1.1088 -3.6975 6.6001 0.5355 2.8271 -4.9041 -0.2852 -2.1854 2.4570 -0.9437 -4.8569 10.3295 2.1521 -3.5553 5.2538 -0.4386 5.8290 -8.3645 0.9366 3.5543 -6.3404 -0.5112 1.7067 -4.3183 -1.3572 -4.7209 7.8045 0.1404
-5.3877 12.6023 3.3862 -2.9681 2.2399 -2.2393 -4.0457 10.1787 3.1672 -0.6657 -0.2835 -1.1881 0.5445 -1.4558 -0.5013 -1.0337 1.2765 -0.3465 -2.4320 3.9003 -0.0324 4.7694 -6.9056 0.7124 -5.6872 11.6928 2.1691 0.7495 -2.8874 -1.4611 -5.1714 9.3200 0.8268 7.7222 -10.5895 1.6697 7.6109 -9.4626 2.4960 6.9762 -10.6859 0.5313 -5.3428 6.3997 -1.9643 2.0837 -6.4862 -2.7168 6.7278 -8.3917 2.1828 5.9868 -9.5676 0.1093 -4.4246 5.2614 -1.6603 3.1201 -7.0675 -1.7596 1.4367 -5.1886 -2.4986 -5.4666 7.5794 -1.1096 -3.6988 6.6027 0.5361 2.8263 -4.9049 -0.2872 -2.1836 2.4579 -0.9405 -4.8604 10.3318 2.1495 -3.5546 5.2549 -0.4364 5.8307 -8.3665 0.9372 3.5548 -6.3410 -0.5112 1.7060 -4.3196 -1.3595 -4.7227 7.8057 0.1392
-5.5440 12.7600 3.2831 -2.9546 2.2375 -2.1984 -4.0638 10.2145 3.1517 -0.6517 -0.2860 -1.1594 0.5598 -1.4683 -0.4872 -1.0091 1.2721 -0.3114 -2.4099 3.9068 0.0082 4.7840 -6.9242 0.7030 -5.7526 11.7549 2.1215 0.7537 -2.8975 -1.4525 -5.1808 9.3302 0.8236 7.7337 -10.6212 1.6318 7.6302 -9.4979 2.4589 6.9795 -10.7111 0.4985 -5.3404 6.3904 -1.9435 2.0814 -6.4994 -2.7112 6.7470 -8.4243 2.1520 5.9912 -9.5892 0.0863 -4.4093 5.2553 -1.6227 3.1222 -7.0809 -1.7580 1.4352 -5.2017 -2.4926 -5.4686 7.5665 -1.1052 -3.6840 6.6170 0.5704 2.8349 -4.9207 -0.2908 -2.1630 2.4595 -0.8986 -4.8830 10.3636 2.1345 -3.5347 5.2603 -0.3946 5.8446 -8.3910 0.9179 3.5621 -6.3566 -0.5156 1.7103 -4.3348 -1.3575 -4.7203 7.8159 0.1577
-5.5137 12.7873 3.3128 -2.8600 2.3202 -2.2764 -4.0632 10.2453 3.1428 -0.7187 -0.3253 -1.1521 0.6492 -1.4185 -0.6452 -0.9074 1.3393 -0.4626 -2.3822 3.9395 -0.0380 4.9027 -6.8651 0.6333 -5.7457 11.7895 2.1291 0.5655 -3.0162 -1.3028 -5.2007 9.3553 0.8455 7.7755 -10.6276 1.6347 7.6256 -9.5237 2.4914 7.0398 -10.6932 0.4878 -5.3593 6.3978 -1.9209 2.1168 -6.5341 -2.7298 6.6385 -8.5132 2.2409 6.0579 -9.5618 0.0771 -4.4143 5.2750 -1.6189 3.2144 -7.0701 -1.8058 1.3824 -5.2756 -2.4568 -5.4933 7.5787 -1.0821 -3.6722 6.6457 0.5634 2.7918 -4.9549 -0.2738 -2.3817 2.3342 -0.7693 -4.8839 10.3927 2.1385 -3.5279 5.2876 -0.4126 5.8617 -8.3971 0.9276 3.6192 -6.3397 -0.5434 1.6133 -4.4092 -1.3021 -4.7303 7.8375 0.1674
-5.5136 12.7898 3.3229 -2.9792 2.2569 -2.2012 -4.0719 10.2486 3.1437 -0.6818 -0.2992 -1.2042 0.5356 -1.4914 -0.5367 -1.0309 1.2606 -0.3497 -2.4214 3.9183 0.0007 4.8005 -6.9334 0.7156 -5.7541 11.7927 2.1325 0.7352 -2.9130 -1.4802 -5.1935 9.3715 0.8322 7.7642 -10.6433 1.6474 7.6599 -9.5158 2.4708 7.0014 -10.7237 0.5186 -5.3494 6.4108 -1.9271 2.1004 -6.5570 -2.7126 6.7734 -8.4393 2.1636 6.0117 -9.5961 0.1117 -4.4212 5.2769 -1.6112 3.1447 -7.1258 -1.7502 1.4424 -5.2473 -2.5022 -5.4807 7.5953 -1.0923 -3.6933 6.6440 0.5742 2.8307 -4.9339 -0.3041 -2.1825 2.4607 -0.9192 -4.8900 10.4007 2.1377 -3.5484 5.2813 -0.3948 5.8658 -8.4025 0.9341 3.5737 -6.3756 -0.5098 1.7037 -4.3567 -1.3742 -4.7315 7.8460 0.1640
-5.5123 12.7900 3.3246 -2.9786 2.2571 -2.1999 -4.0730 10.2490 3.1422 -0.6818 -0.2992 -1.2041 0.5364 -1.4914 -0.5354 -1.0299 1.2607 -0.3483 -2.4203 3.9190 0.0028 4.8011 -6.9334 0.7164 -5.7551 11.7932 2.1314 0.7319 -2.9153 -1.4865 -5.1955 9.3725 0.8303 7.7646 -10.6438 1.6472 7.6604 -9.5162 2.4708 7.0012 -10.7243 0.5176 -5.3490 6.4107 -1.9263 2.1013 -6.5568 -2.7110 6.7739 -8.4395 2.1637 6.0114 -9.5970 0.1105 -4.4206 5.2771 -1.6099 3.1457 -7.1256 -1.7486 1.4425 -5.2481 -2.5024 -5.4805 7.5951 -1.0919 -3.6940 6.6452 0.5743 2.8308 -4.9339 -0.3040 -2.1819 2.4610 -0.9179 -4.8924 10.4025 2.1358 -3.5477 5.2818 -0.3932 5.8667 -8.4030 0.9348 3.5739 -6.3761 -0.5101 1.7028 -4.3576 -1.3762 -4.7322 7.8463 0.1633
-5.5448 12.8014 3.3206 -2.9571 2.2676 -2.1892 -4.2013 10.2095 3.1857 -0.5969 -0.2477 -1.2267 0.4480 -1.5578 -0.4879 -1.1973 1.1510 -0.2354 -2.5637 3.8410 0.1127 4.7436 -6.9855 0.7646 -5.9300 11.7328 2.2185 0.9794 -2.7654 -1.6402 -5.0476 9.4887 0.7178 7.7845 -10.6584 1.6182 7.6719 -9.5413 2.4563 7.0082 -10.7373 0.4922 -5.3136 6.4263 -1.9436 2.0115 -6.6231 -2.6327 6.8128 -8.4448 2.1322 6.0093 -9.6117 0.0982 -4.4524 5.2544 -1.5699 3.0286 -7.2079 -1.6443 1.4641 -5.2500 -2.5192 -5.3974 7.6505 -1.1554 -3.6971 6.6671 0.5738 2.9234 -4.8831 -0.3599 -1.9806 2.5833 -1.0049 -4.9686 10.3985 2.1480 -3.6014 5.2586 -0.3393 5.8661 -8.4267 0.9349 3.5419 -6.4038 -0.4748 1.8188 -4.2960 -1.4583 -4.6623 7.9099 0.1080
-5.5221 12.7977 3.3260 -2.9703 2.2592 -2.1909 -4.0945 10.2581 3.1278 -0.6769 -0.2977 -1.1985 0.5406 -1.4973 -0.5359 -1.0219 1.2613 -0.3371 -2.4161 3.9261 0.0152 4.8080 -6.9405 0.7205 -5.7748 11.8168 2.1301 0.7300 -2.9211 -1.4976 -5.2112 9.3844 0.8213 7.7675 -10.6590 1.6405 7.6640 -9.5345 2.4642 6.9987 -10.7376 0.5026 -5.3440 6.4097 -1.9235 2.1103 -6.5555 -2.7037 6.7778 -8.4541 2.1601 6.0107 -9.6072 0.0999 -4.4136 5.2793 -1.6011 3.1547 -7.1243 -1.7392 1.4485 -5.2538 -2.5048 -5.4828 7.5967 -1.0952 -3.7013 6.6571 0.5764 2.8361 -4.9344 -0.2982 -2.1742 2.4663 -0.9043 -4.9117 10.4164 2.1265 -3.5477 5.2896 -0.3867 5.8729 -8.4167 0.9325 3.5802 -6.3788 -0.5054 1.7053 -4.3636 -1.3812 -4.7424 7.8574 0.1598
-5.5315 12.8233 3.3104 -2.9694 2.2650 -2.1677 -4.1075 10.2847 3.1095 -0.6783 -0.2980 -1.1916 0.5400 -1.5068 -0.5409 -1.0172 1.2634 -0.3261 -2.4089 3.9375 0.0350 4.8156 -6.9484 0.7182 -5.7880 11.8412 2.1172 0.7230 -2.9274 -1.5014 -5.2273 9.4072 0.8129 7.7795 -10.6680 1.6359 7.6801 -9.5458 2.4570 7.0082 -10.7473 0.5028 -5.3478 6.4076 -1.9153 2.1129 -6.5875 -2.7073 6.7928 -8.4657 2.1537 6.0174 -9.6157 0.1004 -4.4157 5.2818 -1.5892 3.1603 -7.1513 -1.7418 1.4470 -5.2777 -2.5085 -5.4908 7.6013 -1.0934 -3.7055 6.6752 0.5821 2.8347 -4.9429 -0.3055 -2.1674 2.4713 -0.8835 -4.9261 10.4419 2.1129 -3.5460 5.3007 -0.3716 5.8822 -8.4250 0.9306 3.5843 -6.3923 -0.5078 1.7014 -4.3743 -1.3855 -4.7519 7.8718 0.1583
-5.5355 12.8245 3.3102 -2.9661 2.2665 -2.1643 -4.1148 10.2872 3.1056 -0.6745 -0.2955 -1.1856 0.5437 -1.5062 -0.5360 -1.0103 1.2658 -0.3149 -2.4082 3.9404 0.0386 4.8170 -6.9508 0.7187 -5.7941 11.8428 2.1130 0.7250 -2.9264 -1.4996 -5.2334 9.4089 0.8074 7.7782 -10.6739 1.6308 7.6800 -9.5532 2.4532 7.0062 -10.7520 0.4962 -5.3462 6.4077 -1.9152 2.1156 -6.5862 -2.7058 6.7932 -8.4709 2.1522 6.0165 -9.6192 0.0960 -4.4134 5.2825 -1.5871 3.1626 -7.1501 -1.7399 1.4487 -5.2771 -2.5088 -5.4911 7.6012 -1.0948 -3.7080 6.6783 0.5822 2.8358 -4.9423 -0.3040 -2.1647 2.4734 -0.8790 -4.9338 10.4453 2.1080 -3.5448 5.3019 -0.3692 5.8830 -8.4290 0.9291 3.5859 -6.3927 -0.5068 1.7028 -4.3743 -1.3853 -4.7554 7.8733 0.1553
-5.5379 12.8250 3.3091 -2.9646 2.2671 -2.1629 -4.1185 10.2884 3.1031 -0.6724 -0.2943 -1.1823 0.5455 -1.5061 -0.5337 -1.0077 1.2668 -0.3106 -2.4080 3.9415 0.0400 4.8176 -6.9516 0.7192 -5.7966 11.8433 2.1112 0.7261 -2.9258 -1.4984 -5.2354 9.4094 0.8055 7.7775 -10.6767 1.6281 7.6798 -9.5564 2.4513 7.0055 -10.7537 0.4939 -5.3454 6.4078 -1.9148 2.1167 -6.5854 -2.7051 6.7934 -8.4730 2.1518 6.0163 -9.6201 0.0949 -4.4124 5.2826 -1.5864 3.1636 -7.1496 -1.7390 1.4496 -5.2768 -2.5086 -5.4914 7.6012 -1.0958 -3.7089 6.6797 0.5824 2.8360 -4.9424 -0.3040 -2.1634 2.4743 -0.8769 -4.9358 10.4462 2.1071 -3.5451 5.3027 -0.3690 5.8829 -8.4306 0.9280 3.5863 -6.3932 -0.5071 1.7034 -4.3743 -1.3853 -4.7567 7.8741 0.1544
-5.5390 12.8256 3.3082 -2.9640 2.2673 -2.1618 -4.1206 10.2893 3.1010 -0.6716 -0.2938 -1.1808 0.5459 -1.5063 -0.5333 -1.0068 1.2668 -0.3094 -2.4073 3.9424 0.0418 4.8179 -6.9520 0.7192 -5.7982 11.8438 2.1095 0.7259 -2.9261 -1.4989 -5.2364 9.4097 0.8044 7.7772 -10.6777 1.6267 7.6800 -9.5574 2.4506 7.0052 -10.7544 0.4927 -5.3451 6.4076 -1.9144 2.1172 -6.5852 -2.7042 6.7936 -8.4737 2.1513 6.0162 -9.6205 0.0943 -4.4118 5.2826 -1.5855 3.1643 -7.1493 -1.7379 1.4498 -5.2772 -2.5086 -5.4913 7.6010 -1.0957 -3.7085 6.6803 0.5836 2.8356 -4.9428 -0.3049 -2.1628 2.4747 -0.8755 -4.9372 10.4471 2.1060 -3.5444 5.3031 -0.3676 5.8833 -8.4310 0.9280 3.5865 -6.3936 -0.5072 1.7034 -4.3747 -1.3856 -4.7570 7.8743 0.1542
-5.5432 12.8253 3.3076 -2.9532 2.2736 -2.1667 -4.1292 10.2871 3.1022 -0.6734 -0.2948 -1.1763 0.5479 -1.5058 -0.5317 -0.9962 1.2726 -0.3117 -2.4022 3.9466 0.0410 4.8187 -6.9527 0.7196 -5.7921 11.8500 2.1003 0.7261 -2.9261 -1.4992 -5.2414 9.4092 0.8043 7.7763 -10.6851 1.6193 7.6804 -9.5592 2.4501 7.0046 -10.7559 0.4904 -5.3454 6.4070 -1.9126 2.1191 -6.5842 -2.7019 6.7940 -8.4751 2.1510 6.0164 -9.6213 0.0936 -4.4097 5.2836 -1.5839 3.1664 -7.1484 -1.7350 1.4506 -5.2772 -2.5085 -5.4936 7.6001 -1.0946 -3.7083 6.6827 0.5835 2.8351 -4.9432 -0.3063 -2.1804 2.4640 -0.8591 -4.9410 10.4495 2.1032 -3.5423 5.3050 -0.3680 5.8840 -8.4320 0.9283 3.5873 -6.3940 -0.5067 1.7034 -4.3753 -1.3867 -4.7587 7.8741 0.1546
-5.5444 12.8270 3.3064 -2.9596 2.2690 -2.1568 -4.1311 10.2916 3.0927 -0.6681 -0.2913 -1.1752 0.5489 -1.5069 -0.5304 -1.0016 1.2674 -0.3020 -2.4052 3.9464 0.0483 4.8200 -6.9537 0.7212 -5.8044 11.8451 2.1051 0.7267 -2.9262 -1.4999 -5.2437 9.4122 0.7979 7.7755 -10.6886 1.6166 7.6800 -9.5635 2.4481 7.0024 -10.7595 0.4847 -5.3421 6.4082 -1.9119 2.1227 -6.5830 -2.6983 6.7938 -8.4781 2.1501 6.0157 -9.6231 0.0912 -4.4078 5.2840 -1.5804 3.1695 -7.1473 -1.7314 1.4524 -5.2777 -2.5089 -5.4908 7.6012 -1.0960 -3.7114 6.6853 0.5848 2.8343 -4.9438 -0.3083 -2.1593 2.4775 -0.8693 -4.9455 10.4512 2.1011 -3.5434 5.3054 -0.3645 5.8847 -8.4343 0.9281 3.5885 -6.3946 -0.5061 1.7039 -4.3758 -1.3878 -4.7607 7.8761 0.1511

$$$$
CHEMBL48643
 OpenBabel02201516223D

 17 19  0  0  0  0  0  0  0  0999 V2000
    2.4523   -2.7887   -0.0405 N   0  0  0  0  0
    1.0856    3.7441    0.9708 Cl  0  0  0  0  0
    3.9541   -0.7852    0.4447 Cl  0  0  0  0  0
   -2.3086   -4.0239   -1.1235 C   0  0  0  0  0
   -1.2881   -4.8412   -0.3229 C   0  0  0  0  0
   -2.4764   -2.6654   -0.4473 C   0  0  0  0  0
    0.0911   -4.2161   -0.5224 C   0  0  0  0  0
    2.3544    1.3698    0.6748 C   0  0  0  0  0
   -0.0352    1.3601    0.4601 C   0  0  0  0  0
   -1.1296   -0.7119    0.0054 N   0  0  0  0  0
    1.1294    2.0332    0.6801 C   0  0  0  0  0
    2.4195    0.0264    0.4479 C   0  0  0  0  0
    1.2571   -2.0864   -0.0255 C   0  0  0  0  0
   -1.1337   -2.0142   -0.2237 C   0  0  0  0  0
    0.0467   -2.7359   -0.2498 C   0  0  0  0  0
   -0.0071   -0.0244    0.2232 C   0  0  0  0  0
    1.2395   -0.6952    0.2169 C   0  0  0  0  0
  1 13  1  0  0  0
  2 11  1  0  0  0
  3 12  1  0  0  0
  4  5  1  0  0  0
  4  6  1  0  0  0
  5  7  1  0  0  0
  6 14  1  0  0  0
  7 15  1  0  0  0
  8 11  2  0  0  0
  8 12  1  0  0  0
  9 11  1  0  0  0
  9 16  2  0  0  0
 10 14  2  0  0  0
 10 16  1  0  0  0
 12 17  2  0  0  0
 13 15  2  0  0  0
 13 17  1  0  0  0
 14 15  1  0  0  0
 16 17  1  0  0  0
M  END

>  <MOLID> (CHEMBL48643)
CHEMBL48643

>  <SMILES_CANONICAL> (CHEMBL48643)
Clc1cc(Cl)c2c(c1)nc1c(c2N)CCCC1	CHEMBL48643

>  <FINGERPRINT> (CHEMBL48643)
0000000000000001100000000000101000100001000000000100000000000000000000000000000001000001000000100001000010000001000000100001000000000000000011000001000100100000000000000000000000000000001000000000110100000000101000000000000000000000000000000000000000000001000100000100000000001000000000000000000000001000000010000100000000001000000100001000000000000100010000001000000010001000000000000000001000000000000010000010010000000000011000000000110000000001000000000000001000000000010000000000001000001100000000000000010000000000000000000000001000000000000001100000000000000000000011000000001000100000001001000000100000000000000000000000000000000001010000000001000000000001000000000000100000000000100000010000100000100000100000000100000000000000100000000100000000000000000100000000000000000100011000000000000010000000000000000000000000000001000010000000010010000000010000000000000000000000000000001000000000000000010000000000000000000110000000001000011000000000000000100000000000000100000000000000000000100000010000100000010001000000

>  <MACCS166> (CHEMBL48643)
000000000000000000000000010000000000000000001000010000000000000000000000000101010001001001100000011000101010001000000111100000001010111010000101101000100001010010101000

>  <OB_MW> (CHEMBL48643)
266.038

>  <OB_logP> (CHEMBL48643)
4.5838

>  <OB_PSA> (CHEMBL48643)
38.91

>  <OB_MR> (CHEMBL48643)
73.5994

>  <OB_ATOMIC_CHARGES> (CHEMBL48643)
-0.1282714183 -0.082166796 -0.0821242565 0.0066292416 0.0051591011 0.0455278352 0.0289349725 0.0229248452 0.0305679128 -0.2498459641 0.0600105297 0.061231666 0.0884545879 0.056253371 0.0081732363 0.0838208489 0.044720287

>  <MCT_HBD> (CHEMBL48643)
1

>  <MCT_HBA> (CHEMBL48643)
2

>  <ENSEMBLE_TOTAL> (CHEMBL48643)
2

>  <ENSEMBLE_RMSD> (CHEMBL48643)
0.000 0.152

>  <ENSEMBLE_COORDS> (CHEMBL48643)
2.0022 -1.6678 -0.1092 0.6355 4.8650 0.9021 3.5040 0.3357 0.3760 -2.7587 -2.9030 -1.1922 -1.7382 -3.7203 -0.3916 -2.9265 -1.5445 -0.5160 -0.3590 -3.0952 -0.5911 1.9043 2.4907 0.6061 -0.4853 2.4810 0.3914 -1.5797 0.4090 -0.0633 0.6793 3.1541 0.6114 1.9694 1.1473 0.3792 0.8070 -0.9655 -0.0942 -1.5838 -0.8933 -0.2924 -0.4034 -1.6150 -0.3185 -0.4572 1.0965 0.1545 0.7894 0.4257 0.1482
2.0645 -1.6994 -0.0700 0.6697 4.9088 0.8924 3.5230 0.3353 0.4228 -2.8588 -2.9928 -0.7991 -1.6576 -3.7095 -0.7942 -2.8682 -1.6213 -0.5702 -0.4472 -3.0675 -0.5606 1.9204 2.5184 0.6219 -0.4683 2.5161 0.3729 -1.6266 0.4384 -0.0958 0.7076 3.1949 0.6091 1.9717 1.1509 0.3981 0.7934 -0.9616 -0.0786 -1.6320 -0.9316 -0.3260 -0.4290 -1.6493 -0.3211 -0.4439 1.1290 0.1430 0.7815 0.4413 0.1553

$$$$
