
 OpenBabel07031101263D

 55 59  0  0  0  0  0  0  0  0999 V2000
   43.8137   -8.1907   37.5290 C   0  0  0  0  0
   43.3819   -8.6819   38.8803 C   0  0  0  0  0
   42.1289   -8.2214   39.6666 C   0  0  0  0  0
   42.3087   -8.3582   41.1461 C   0  0  0  0  0
   43.1050   -7.7615   43.4013 C   0  0  0  0  0
   43.4851   -6.4066   44.0209 C   0  0  0  0  0
   44.8466   -5.8600   43.4622 C   0  0  0  0  0
   45.9461   -6.8980   43.7135 C   0  0  0  0  0
   45.5368   -8.2055   42.9926 C   0  0  0  0  0
   41.8764   -8.3049   44.2038 C   0  0  0  0  0
   39.3889   -7.6888   44.3620 C   0  0  0  0  0
   39.0063   -6.4861   45.1990 C   0  0  0  0  0
   38.5407   -5.6029   44.0085 C   0  0  0  0  0
   38.3523   -8.6786   44.0048 C   0  0  0  0  0
   37.7583  -10.4927   42.3317 C   0  0  0  0  0
   36.8570   -9.8115   41.3095 C   0  0  0  0  0
   35.6079  -10.6904   41.0575 C   0  0  0  0  0
   34.4947   -9.9131   40.3403 C   0  0  0  0  0
   33.5976   -9.0470   40.9854 C   0  0  0  0  0
   32.6155   -8.3588   40.2548 C   0  0  0  0  0
   32.5395   -8.4796   38.8576 C   0  0  0  0  0
   33.4393   -9.3203   38.1707 C   0  0  0  0  0
   33.3316   -9.4666   36.7602 C   0  0  0  0  0
   34.1916  -10.3363   36.0978 C   0  0  0  0  0
   35.1567  -11.0572   36.7974 C   0  0  0  0  0
   35.2886  -10.9202   38.1847 C   0  0  0  0  0
   34.3920  -10.0592   38.8681 C   0  0  0  0  0
   37.7702   -9.6213   40.0653 C   0  0  0  0  0
   38.6735   -8.3933   40.1923 C   0  0  0  0  0
   39.8302   -8.3952   39.4929 C   0  0  0  0  0
   44.2070   -8.8357   43.5359 C   0  0  0  0  0
   40.9274   -7.3425   39.3897 C   0  0  0  0  0
   40.8023   -6.7598   38.0071 C   0  0  0  0  0
   40.7667   -5.3859   37.8232 C   0  0  0  0  0
   40.6338   -4.8558   36.5137 C   0  0  0  0  0
   40.4836   -5.7456   35.4496 C   0  0  0  0  0
   40.4943   -7.1375   35.6394 C   0  0  0  0  0
   40.2933   -5.2841   34.0471 C   0  0  0  0  0
   40.8952   -3.9360   33.8422 C   0  0  0  0  0
   38.8072   -5.2495   33.7260 C   0  0  0  0  0
   40.6289   -7.6593   36.9443 C   0  0  0  0  0
   42.8308   -7.4680   41.9626 N   0  0  0  0  0
   40.7666   -7.6586   43.8697 N   0  0  0  0  0
   37.7000   -4.5952   44.2512 N   0  0  0  0  0
   38.6002   -9.4856   42.9861 N   0  0  0  0  0
   43.6575   -8.9484   36.5349 O   0  0  0  0  0
   44.3356   -7.0697   37.5425 O   0  0  0  0  0
   41.8084   -9.4130   41.4425 O   0  0  0  0  0
   38.8885   -5.9100   42.8349 O   0  0  0  0  0
   37.2318   -8.6113   44.4887 O   0  0  0  0  0
   41.9706   -9.2594   45.0248 O   0  0  0  0  0
   42.0963   -3.7235   34.0776 O   0  0  0  0  0
   40.1344   -3.0461   33.4049 O   0  0  0  0  0
   37.9622   -4.8110   34.5828 O   0  0  0  0  0
   38.4227   -5.6394   32.5985 O   0  0  0  0  0
 47  1  2  0  0  0
  2  1  1  0  0  0
  1 46  1  0  0  0
  3  2  1  0  0  0
  4  3  1  0  0  0
  3 32  1  0  0  0
 42  4  1  0  0  0
  4 48  2  0  0  0
  6  5  1  0  0  0
  5 31  1  0  0  0
  5 10  1  0  0  0
  5 42  1  0  0  0
  7  6  1  0  0  0
  7  8  1  0  0  0
  8  9  1  0  0  0
  9 31  1  0  0  0
 10 51  2  0  0  0
 10 43  1  0  0  0
 12 11  1  0  0  0
 43 11  1  0  0  0
 11 14  1  0  0  0
 12 13  1  0  0  0
 44 13  1  0  0  0
 13 49  2  0  0  0
 14 50  2  0  0  0
 14 45  1  0  0  0
 45 15  1  0  0  0
 15 16  1  0  0  0
 16 28  1  0  0  0
 16 17  1  0  0  0
 17 18  1  0  0  0
 19 18  2  0  0  0
 18 27  1  0  0  0
 19 20  1  0  0  0
 20 21  2  0  0  0
 21 22  1  0  0  0
 27 22  2  0  0  0
 22 23  1  0  0  0
 23 24  2  0  0  0
 25 24  1  0  0  0
 26 25  2  0  0  0
 27 26  1  0  0  0
 29 28  1  0  0  0
 30 29  2  0  0  0
 32 30  1  0  0  0
 32 33  1  0  0  0
 34 33  2  0  0  0
 33 41  1  0  0  0
 34 35  1  0  0  0
 35 36  2  0  0  0
 36 38  1  0  0  0
 36 37  1  0  0  0
 41 37  2  0  0  0
 39 38  1  0  0  0
 38 40  1  0  0  0
 52 39  2  0  0  0
 39 53  1  0  0  0
 54 40  2  0  0  0
 40 55  1  0  0  0
M  END
>  <MOLID> (2AOBC00)
2AOBC00

>  <SMILES_CANONICAL> (2AOBC00)
OC(=O)C[C@H]1C(=O)NC2(CCCCC2)C(=O)N[C@@H](CC(=O)N)C(=O)NC[C@@H](CC=C[C@@H]1c1ccc(cc1)C(C(=O)O)C(=O)O)Cc1cccc2ccccc12	

>  <OB_MW> (2AOBC00)
754.321

>  <OB_logP> (2AOBC00)
5.0681

>  <OB_PSA> (2AOBC00)
242.29

>  <OB_MR> (2AOBC00)
213.237

>  <FINGERPRINT> (2AOBC00)
0000000000000111000000000000000000000001000000000011011000000000000000000001000000000001000000100000010000000001000001100000000000000000000110000000000001000000000000001000000000000000000000000000000000000000000000000000000100100000000000000000010000001010000100000010000000001001000000000000000010011000100010011100100000001000001100000000000000000000010000000000001110111000000000000001111100000010100000000000101000000000001000000010000000000001110000000000010000000100000000000000000000001100000000000000100000001000000000000100000000000000000000100001000000000000000000010000001101100000001000000001100000000010000000000000101000000001000000000000000000000001000000000011100000001100000011100001100000000001000000001000000000000011000000100101000000000000000110000000000000100000000110000000000010000000000000000010000000000000000000000100000001000000000000001001000000000000000000000000000000001100000000000000000000000010100000000000011000000000000110110010010000000010011000000000000000000000110000000010111000000000

>  <MCT_HBD> (2AOBC00)
7

>  <MCT_HBA> (2AOBC00)
14

>  <MACCS166> (2AOBC00)
000000000000000000000000010000000000000000000000010011000000010001000000000100110101000011110010101100011000011100001101101010111011000111110110111001101111111010111000

>  <EFINDSITE_POCKET> (2AOBC00)
1

>  <FINDSITE_CLUSTER_SMILES> (2AOBC00)
1

>  <FINDSITE_CLUSTER_MACCS> (2AOBC00)
1

$$$$

 OpenBabel07031101263D

 55 59  0  0  0  0  0  0  0  0999 V2000
   43.6015   -8.5013   37.5543 C   0  0  0  0  0
   43.2084   -8.9717   38.8937 C   0  0  0  0  0
   41.8930   -8.5576   39.5558 C   0  0  0  0  0
   40.9773   -7.3880   39.2731 C   0  0  0  0  0
   40.7400   -6.8596   37.9038 C   0  0  0  0  0
   40.8194   -5.4789   37.7473 C   0  0  0  0  0
   40.6846   -4.9137   36.5466 C   0  0  0  0  0
   40.3884   -5.7607   35.5033 C   0  0  0  0  0
   40.1097   -5.2351   34.1418 C   0  0  0  0  0
   40.6492   -3.9089   33.8333 C   0  0  0  0  0
   38.6357   -5.2120   33.6685 C   0  0  0  0  0
   40.2345   -7.1359   35.6283 C   0  0  0  0  0
   40.4041   -7.7343   36.8609 C   0  0  0  0  0
   39.5718   -7.8394   39.6403 C   0  0  0  0  0
   39.0028   -9.0412   39.8507 C   0  0  0  0  0
   37.4811   -9.1469   40.1807 C   0  0  0  0  0
   36.8156   -9.9247   41.4383 C   0  0  0  0  0
   37.7974  -10.5683   42.3642 C   0  0  0  0  0
   38.4415   -8.9269   43.8441 C   0  0  0  0  0
   39.3312   -7.8469   44.1725 C   0  0  0  0  0
   38.8511   -6.7801   45.1491 C   0  0  0  0  0
   38.4808   -5.8431   43.8746 C   0  0  0  0  0
   41.8138   -8.4651   44.2684 C   0  0  0  0  0
   43.0459   -8.0441   43.3446 C   0  0  0  0  0
   43.4529   -6.6934   44.0095 C   0  0  0  0  0
   44.7161   -5.9921   43.4157 C   0  0  0  0  0
   45.8697   -6.9602   43.7015 C   0  0  0  0  0
   45.5714   -8.2447   42.8920 C   0  0  0  0  0
   44.2759   -8.9798   43.3937 C   0  0  0  0  0
   35.6991  -10.9863   41.1330 C   0  0  0  0  0
   34.5598  -10.2557   40.4228 C   0  0  0  0  0
   34.2969  -10.1949   38.9543 C   0  0  0  0  0
   35.1075  -10.8714   38.0286 C   0  0  0  0  0
   34.8351  -10.7820   36.6071 C   0  0  0  0  0
   33.7690   -9.9772   36.1687 C   0  0  0  0  0
   33.0145   -9.2806   37.1272 C   0  0  0  0  0
   33.2782   -9.4090   38.4695 C   0  0  0  0  0
   32.4634   -8.6804   39.3182 C   0  0  0  0  0
   32.7161   -8.7745   40.6654 C   0  0  0  0  0
   33.7583   -9.5215   41.2303 C   0  0  0  0  0
   42.0906   -8.7651   41.0811 C   0  0  0  0  0
   38.8134   -9.6502   42.7817 N   0  0  0  0  0
   37.7356   -4.8117   44.0406 N   0  0  0  0  0
   40.6714   -8.1078   43.7424 N   0  0  0  0  0
   42.6347   -7.8858   41.9227 N   0  0  0  0  0
   43.3739   -9.2781   36.5535 O   0  0  0  0  0
   44.2216   -7.4138   37.5881 O   0  0  0  0  0
   39.8423   -3.0239   33.4026 O   0  0  0  0  0
   41.9054   -3.7981   33.9598 O   0  0  0  0  0
   38.4075   -5.7644   32.5732 O   0  0  0  0  0
   37.6762   -4.6457   34.2266 O   0  0  0  0  0
   37.3063   -8.9983   44.2623 O   0  0  0  0  0
   38.8745   -5.9806   42.6484 O   0  0  0  0  0
   41.9558   -8.9214   45.3062 O   0  0  0  0  0
   41.6875   -9.8462   41.3738 O   0  0  0  0  0
 47  1  2  0  0  0
 46  1  1  0  0  0
  1  2  1  0  0  0
  2  3  1  0  0  0
  4  3  1  0  0  0
  3 41  1  0  0  0
  5  4  1  0  0  0
  4 14  1  0  0  0
  6  5  2  0  0  0
 13  5  1  0  0  0
  7  6  1  0  0  0
  8  7  2  0  0  0
  9  8  1  0  0  0
  8 12  1  0  0  0
 10  9  1  0  0  0
 11  9  1  0  0  0
 48 10  2  0  0  0
 10 49  1  0  0  0
 50 11  2  0  0  0
 51 11  1  0  0  0
 12 13  2  0  0  0
 14 15  2  0  0  0
 15 16  1  0  0  0
 16 17  1  0  0  0
 17 30  1  0  0  0
 17 18  1  0  0  0
 42 18  1  0  0  0
 20 19  1  0  0  0
 42 19  1  0  0  0
 19 52  2  0  0  0
 21 20  1  0  0  0
 44 20  1  0  0  0
 22 21  1  0  0  0
 53 22  2  0  0  0
 43 22  1  0  0  0
 24 23  1  0  0  0
 44 23  1  0  0  0
 23 54  2  0  0  0
 45 24  1  0  0  0
 25 24  1  0  0  0
 24 29  1  0  0  0
 26 25  1  0  0  0
 26 27  1  0  0  0
 27 28  1  0  0  0
 28 29  1  0  0  0
 31 30  1  0  0  0
 32 31  2  0  0  0
 40 31  1  0  0  0
 37 32  1  0  0  0
 33 32  1  0  0  0
 34 33  2  0  0  0
 35 34  1  0  0  0
 35 36  2  0  0  0
 36 37  1  0  0  0
 38 37  2  0  0  0
 38 39  1  0  0  0
 39 40  2  0  0  0
 45 41  1  0  0  0
 41 55  2  0  0  0
M  END
>  <MOLID> (2AOAA00)
2AOAA00

>  <SMILES_CANONICAL> (2AOAA00)
OC(=O)C[C@H]1C(=O)NC2(CCCCC2)C(=O)N[C@H](CC(=O)N)C(=O)NC[C@@H](CC=C[C@@H]1c1ccc(cc1)C(C(=O)O)C(=O)O)Cc1cccc2ccccc12	

>  <OB_MW> (2AOAA00)
754.321

>  <OB_logP> (2AOAA00)
5.0681

>  <OB_PSA> (2AOAA00)
242.29

>  <OB_MR> (2AOAA00)
213.237

>  <FINGERPRINT> (2AOAA00)
0000000000000111000000000000000000000001000000000011011000000000000000000001000000000001000000100000010000000001000001100000000000000000000110000000000001000000000000001000000000000000000000000000000000000000000000000000000100100000000000000000010000001010000100000010000000001001000000000000000010011000100010011100100000001000001100000000000000000000010000000000001110111000000000000001111100000010100000000000101000000000001000000010000000000001110000000000010000000100000000000000000000001100000000000000100000001000000000000100000000000000000000100001000000000000000000010000001101100000001000000001100000000010000000000000101000000001000000000000000000000001000000000011100000001100000011100001100000000001000000001000000000000011000000100101000000000000000110000000000000100000000110000000000010000000000000000010000000000000000000000100000001000000000000001001000000000000000000000000000000001100000000000000000000000010100000000000011000000000000110110010010000000010011000000000000000000000110000000010111000000000

>  <MCT_HBD> (2AOAA00)
7

>  <MCT_HBA> (2AOAA00)
14

>  <MACCS166> (2AOAA00)
000000000000000000000000010000000000000000000000010011000000010001000000000100110001000011110010101000011000011100001101101010111011000111110110111001101111111010111000

>  <EFINDSITE_POCKET> (2AOAA00)
1

>  <FINDSITE_CLUSTER_SMILES> (2AOAA00)
1

>  <FINDSITE_CLUSTER_MACCS> (2AOAA00)
1

$$$$

 OpenBabel07031101263D

 55 59  0  0  0  0  0  0  0  0999 V2000
   43.8190   -8.9066   39.3803 C   0  0  0  0  0
   42.2921   -9.1217   39.5255 C   0  0  0  0  0
   41.4848   -8.1370   40.4328 C   0  0  0  0  0
   42.0305   -8.0527   41.8398 C   0  0  0  0  0
   43.3436   -7.4422   43.9390 C   0  0  0  0  0
   43.7594   -5.9535   44.0856 C   0  0  0  0  0
   45.2241   -5.6433   43.6465 C   0  0  0  0  0
   46.1800   -6.8564   43.6737 C   0  0  0  0  0
   45.6037   -8.1041   42.9300 C   0  0  0  0  0
   44.2283   -8.5989   43.4689 C   0  0  0  0  0
   42.0847   -7.8119   44.7257 C   0  0  0  0  0
   39.7106   -7.1499   45.0797 C   0  0  0  0  0
   38.8047   -8.3635   45.0245 C   0  0  0  0  0
   38.2531  -10.3772   43.7458 C   0  0  0  0  0
   36.9671   -9.8980   43.0434 C   0  0  0  0  0
   36.0093  -11.1183   43.1295 C   0  0  0  0  0
   34.5985  -10.6980   42.7833 C   0  0  0  0  0
   33.6510  -10.0666   43.7704 C   0  0  0  0  0
   34.0918   -9.7528   45.0942 C   0  0  0  0  0
   33.2173   -9.1185   45.9864 C   0  0  0  0  0
   31.9184   -8.8153   45.5828 C   0  0  0  0  0
   31.4687   -9.1097   44.2880 C   0  0  0  0  0
   32.3407   -9.7271   43.3691 C   0  0  0  0  0
   31.9155  -10.0519   42.0652 C   0  0  0  0  0
   32.8026  -10.7126   41.1749 C   0  0  0  0  0
   34.1466  -11.0607   41.4921 C   0  0  0  0  0
   37.0597   -9.4050   41.5472 C   0  0  0  0  0
   38.0575   -8.2807   41.2255 C   0  0  0  0  0
   39.1449   -8.4379   40.4346 C   0  0  0  0  0
   39.0625   -5.9402   45.6695 C   0  0  0  0  0
   38.4928   -5.2796   44.4086 C   0  0  0  0  0
   40.2075   -7.3629   40.0896 C   0  0  0  0  0
   40.0702   -6.8949   38.7048 C   0  0  0  0  0
   40.5130   -5.6280   38.4184 C   0  0  0  0  0
   40.4082   -5.1361   37.1376 C   0  0  0  0  0
   39.8797   -5.9579   36.1266 C   0  0  0  0  0
   39.7572   -5.5075   34.7262 C   0  0  0  0  0
   40.7587   -4.4455   34.3574 C   0  0  0  0  0
   38.3383   -5.0998   34.5169 C   0  0  0  0  0
   39.4533   -7.2375   36.4159 C   0  0  0  0  0
   39.5379   -7.7305   37.6992 C   0  0  0  0  0
   42.7587   -7.1162   42.5967 N   0  0  0  0  0
   41.0545   -7.0609   44.4348 N   0  0  0  0  0
   39.0883   -9.1811   44.0161 N   0  0  0  0  0
   37.4351   -4.4361   44.3993 N   0  0  0  0  0
   44.2372   -7.8309   38.8720 O   0  0  0  0  0
   44.5530   -9.8476   39.7547 O   0  0  0  0  0
   41.6657   -9.0372   42.4142 O   0  0  0  0  0
   37.8092   -8.4691   45.7627 O   0  0  0  0  0
   39.0852   -5.4730   43.3456 O   0  0  0  0  0
   42.2705   -8.5728   45.6937 O   0  0  0  0  0
   41.9252   -4.5787   34.7536 O   0  0  0  0  0
   40.3916   -3.4638   33.6819 O   0  0  0  0  0
   37.6951   -5.8360   33.7219 O   0  0  0  0  0
   37.9027   -4.0894   35.1608 O   0  0  0  0  0
 46  1  2  0  0  0
 47  1  1  0  0  0
  1  2  1  0  0  0
  2  3  1  0  0  0
  4  3  1  0  0  0
  3 32  1  0  0  0
 42  4  1  0  0  0
  4 48  2  0  0  0
  6  5  1  0  0  0
 10  5  1  0  0  0
  5 42  1  0  0  0
  5 11  1  0  0  0
  7  6  1  0  0  0
  8  7  1  0  0  0
  8  9  1  0  0  0
  9 10  1  0  0  0
 11 51  2  0  0  0
 11 43  1  0  0  0
 43 12  1  0  0  0
 12 30  1  0  0  0
 12 13  1  0  0  0
 44 13  1  0  0  0
 13 49  2  0  0  0
 44 14  1  0  0  0
 14 15  1  0  0  0
 27 15  1  0  0  0
 15 16  1  0  0  0
 16 17  1  0  0  0
 17 26  2  0  0  0
 17 18  1  0  0  0
 19 18  1  0  0  0
 18 23  2  0  0  0
 19 20  2  0  0  0
 20 21  1  0  0  0
 21 22  2  0  0  0
 23 22  1  0  0  0
 23 24  1  0  0  0
 25 24  2  0  0  0
 26 25  1  0  0  0
 28 27  1  0  0  0
 29 28  2  0  0  0
 32 29  1  0  0  0
 30 31  1  0  0  0
 50 31  2  0  0  0
 31 45  1  0  0  0
 33 32  1  0  0  0
 34 33  2  0  0  0
 33 41  1  0  0  0
 35 34  1  0  0  0
 35 36  2  0  0  0
 37 36  1  0  0  0
 36 40  1  0  0  0
 38 37  1  0  0  0
 37 39  1  0  0  0
 52 38  2  0  0  0
 53 38  1  0  0  0
 39 55  2  0  0  0
 39 54  1  0  0  0
 40 41  2  0  0  0
M  END
>  <MOLID> (2AOBD01)
2AOBD01

>  <SMILES_CANONICAL> (2AOBD01)
OC(=O)C[C@@H]1C(=O)NC2(CCCCC2)C(=O)N[C@@H](CC(=O)N)C(=O)NC[C@@H](CC=C[C@@H]1c1ccc(cc1)C(C(=O)O)C(=O)O)Cc1cccc2ccccc12	

>  <OB_MW> (2AOBD01)
754.321

>  <OB_logP> (2AOBD01)
5.0681

>  <OB_PSA> (2AOBD01)
242.29

>  <OB_MR> (2AOBD01)
213.237

>  <FINGERPRINT> (2AOBD01)
0000000000000111000000000000000000000001000000000011011000000000000000000001000000000001000000100000010000000001000001100000000000000000000110000000000001000000000000001000000000000000000000000000000000000000000000000000000100100000000000000000010000001010000100000010000000001001000000000000000010011000100010011100100000001000001100000000000000000000010000000000001110111000000000000001111100000010100000000000101000000000001000000010000000000001110000000000010000000100000000000000000000001100000000000000100000001000000000000100000000000000000000100001000000000000000000010000001101100000001000000001100000000010000000000000101000000001000000000000000000000001000000000011100000001100000011100001100000000001000000001000000000000011000000100101000000000000000110000000000000100000000110000000000010000000000000000010000000000000000000000100000001000000000000001001000000000000000000000000000000001100000000000000000000000010100000000000011000000000000110110010010000000010011000000000000000000000110000000010111000000000

>  <MCT_HBD> (2AOBD01)
7

>  <MCT_HBA> (2AOBD01)
14

>  <MACCS166> (2AOBD01)
000000000000000000000000010000000000000000000000010011000000010001000000000100110101000011110010101100011000011100001101101010111011000111110110111001101111111010111000

>  <EFINDSITE_POCKET> (2AOBD01)
1

>  <FINDSITE_CLUSTER_SMILES> (2AOBD01)
1

>  <FINDSITE_CLUSTER_MACCS> (2AOBD01)
1

$$$$

 OpenBabel07031101263D

 55 59  0  0  0  0  0  0  0  0999 V2000
   43.7859   -8.8134   38.9223 C   0  0  0  0  0
   42.2578   -8.8213   38.9795 C   0  0  0  0  0
   41.5191   -8.0633   40.1458 C   0  0  0  0  0
   40.2074   -7.3248   39.8832 C   0  0  0  0  0
   40.0095   -6.8393   38.4899 C   0  0  0  0  0
   39.5714   -7.6745   37.4114 C   0  0  0  0  0
   39.4569   -7.1012   36.1330 C   0  0  0  0  0
   39.7094   -5.7437   35.9367 C   0  0  0  0  0
   40.1458   -4.9431   37.0081 C   0  0  0  0  0
   39.5682   -5.1413   34.5756 C   0  0  0  0  0
   38.2071   -4.5364   34.3227 C   0  0  0  0  0
   40.7072   -4.2162   34.2380 C   0  0  0  0  0
   40.2766   -5.5296   38.2485 C   0  0  0  0  0
   39.2240   -8.4975   40.1108 C   0  0  0  0  0
   38.0543   -8.3276   40.7933 C   0  0  0  0  0
   37.1190   -9.4951   41.0620 C   0  0  0  0  0
   36.9500   -9.8632   42.5619 C   0  0  0  0  0
   35.9305  -11.0489   42.6140 C   0  0  0  0  0
   34.5368  -10.5977   42.1925 C   0  0  0  0  0
   33.5641   -9.9934   43.1714 C   0  0  0  0  0
   33.9508   -9.7636   44.5161 C   0  0  0  0  0
   33.0070   -9.1760   45.3973 C   0  0  0  0  0
   31.7037   -8.8566   44.9085 C   0  0  0  0  0
   31.3318   -9.0484   43.5962 C   0  0  0  0  0
   32.2521   -9.6179   42.7257 C   0  0  0  0  0
   31.8653   -9.8368   41.3944 C   0  0  0  0  0
   32.7656  -10.4611   40.5118 C   0  0  0  0  0
   34.0985  -10.8400   40.8811 C   0  0  0  0  0
   38.1866  -10.4020   43.2260 C   0  0  0  0  0
   38.7804   -8.4886   44.6157 C   0  0  0  0  0
   39.7333   -7.3217   44.7655 C   0  0  0  0  0
   39.1134   -6.0759   45.3206 C   0  0  0  0  0
   38.5301   -5.4132   44.0728 C   0  0  0  0  0
   42.0409   -7.9593   44.3003 C   0  0  0  0  0
   43.3143   -7.5619   43.6483 C   0  0  0  0  0
   43.8157   -6.1345   43.9219 C   0  0  0  0  0
   45.0965   -5.7685   43.1294 C   0  0  0  0  0
   46.0989   -6.9641   43.3688 C   0  0  0  0  0
   45.5941   -8.4195   42.9984 C   0  0  0  0  0
   44.2282   -8.8671   43.6600 C   0  0  0  0  0
   42.0603   -8.0949   41.5059 C   0  0  0  0  0
   39.0490   -9.2289   43.5313 N   0  0  0  0  0
   37.4196   -4.6597   44.1486 N   0  0  0  0  0
   40.9961   -7.2510   43.9829 N   0  0  0  0  0
   42.8365   -7.2396   42.2791 N   0  0  0  0  0
   44.2051   -7.7271   38.5272 O   0  0  0  0  0
   37.4028   -5.1730   33.5829 O   0  0  0  0  0
   37.9090   -3.4421   34.8547 O   0  0  0  0  0
   41.8729   -4.4762   34.6759 O   0  0  0  0  0
   40.3843   -3.2117   33.5627 O   0  0  0  0  0
   37.7582   -8.6815   45.2622 O   0  0  0  0  0
   39.1301   -5.5776   42.9943 O   0  0  0  0  0
   42.2699   -8.7647   45.2536 O   0  0  0  0  0
   41.6901   -9.1631   41.9446 O   0  0  0  0  0
   44.5184   -9.8175   39.1557 O   0  0  0  0  0
  2  1  1  0  0  0
  1 55  2  0  0  0
  1 46  1  0  0  0
  3  2  1  0  0  0
  4  3  1  0  0  0
  3 41  1  0  0  0
 14  4  1  0  0  0
  4  5  1  0  0  0
  6  5  2  0  0  0
  5 13  1  0  0  0
  6  7  1  0  0  0
  7  8  2  0  0  0
  8 10  1  0  0  0
  8  9  1  0  0  0
 13  9  2  0  0  0
 11 10  1  0  0  0
 10 12  1  0  0  0
 47 11  2  0  0  0
 48 11  1  0  0  0
 12 50  2  0  0  0
 12 49  1  0  0  0
 15 14  2  0  0  0
 16 15  1  0  0  0
 17 16  1  0  0  0
 18 17  1  0  0  0
 17 29  1  0  0  0
 19 18  1  0  0  0
 20 19  2  0  0  0
 28 19  1  0  0  0
 25 20  1  0  0  0
 20 21  1  0  0  0
 22 21  2  0  0  0
 23 22  1  0  0  0
 24 23  2  0  0  0
 24 25  1  0  0  0
 26 25  2  0  0  0
 26 27  1  0  0  0
 27 28  2  0  0  0
 29 42  1  0  0  0
 51 30  2  0  0  0
 30 42  1  0  0  0
 30 31  1  0  0  0
 32 31  1  0  0  0
 31 44  1  0  0  0
 33 32  1  0  0  0
 43 33  1  0  0  0
 33 52  2  0  0  0
 44 34  1  0  0  0
 53 34  2  0  0  0
 34 35  1  0  0  0
 45 35  1  0  0  0
 35 40  1  0  0  0
 35 36  1  0  0  0
 36 37  1  0  0  0
 37 38  1  0  0  0
 39 38  1  0  0  0
 40 39  1  0  0  0
 54 41  2  0  0  0
 41 45  1  0  0  0
M  END
>  <MOLID> (2AOBB01)
2AOBB01

>  <SMILES_CANONICAL> (2AOBB01)
OC(=O)C[C@@H]1C(=O)NC2(CCCCC2)C(=O)N[C@@H](CC(=O)N)C(=O)NC[C@@H](CC=C[C@@H]1c1ccc(cc1)C(C(=O)O)C(=O)O)Cc1cccc2ccccc12	

>  <OB_MW> (2AOBB01)
754.321

>  <OB_logP> (2AOBB01)
5.0681

>  <OB_PSA> (2AOBB01)
242.29

>  <OB_MR> (2AOBB01)
213.237

>  <FINGERPRINT> (2AOBB01)
0000000000000111000000000000000000000001000000000011011000000000000000000001000000000001000000100000010000000001000001100000000000000000000110000000000001000000000000001000000000000000000000000000000000000000000000000000000100100000000000000000010000001010000100000010000000001001000000000000000010011000100010011100100000001000001100000000000000000000010000000000001110111000000000000001111100000010100000000000101000000000001000000010000000000001110000000000010000000100000000000000000000001100000000000000100000001000000000000100000000000000000000100001000000000000000000010000001101100000001000000001100000000010000000000000101000000001000000000000000000000001000000000011100000001100000011100001100000000001000000001000000000000011000000100101000000000000000110000000000000100000000110000000000010000000000000000010000000000000000000000100000001000000000000001001000000000000000000000000000000001100000000000000000000000010100000000000011000000000000110110010010000000010011000000000000000000000110000000010111000000000

>  <MCT_HBD> (2AOBB01)
7

>  <MCT_HBA> (2AOBB01)
14

>  <MACCS166> (2AOBB01)
000000000000000000000000010000000000000000000000010011000000010001000000000100110001000011110010101000011000011100001101101010111011000111110110111001101111111010111000

>  <EFINDSITE_POCKET> (2AOBB01)
1

>  <FINDSITE_CLUSTER_SMILES> (2AOBB01)
1

>  <FINDSITE_CLUSTER_MACCS> (2AOBB01)
1

$$$$

 OpenBabel07031101263D

 55 59  0  0  0  0  0  0  0  0999 V2000
   43.7644   -8.3012   37.5510 C   0  0  0  0  0
   43.1051   -9.0240   38.6745 C   0  0  0  0  0
   42.0002   -8.4524   39.6033 C   0  0  0  0  0
   40.8189   -7.5354   39.2544 C   0  0  0  0  0
   40.6918   -6.9802   37.8626 C   0  0  0  0  0
   40.4563   -7.8113   36.7297 C   0  0  0  0  0
   40.3564   -7.2460   35.4474 C   0  0  0  0  0
   40.4274   -5.8507   35.2866 C   0  0  0  0  0
   40.2246   -5.2736   33.8902 C   0  0  0  0  0
   38.7122   -5.2796   33.5903 C   0  0  0  0  0
   40.8697   -3.9337   33.6693 C   0  0  0  0  0
   40.6292   -5.0369   36.4251 C   0  0  0  0  0
   40.7558   -5.5744   37.7094 C   0  0  0  0  0
   39.7523   -8.6202   39.4051 C   0  0  0  0  0
   38.5284   -8.5576   39.9828 C   0  0  0  0  0
   37.7137   -9.8666   39.9063 C   0  0  0  0  0
   36.7128  -10.0305   41.0726 C   0  0  0  0  0
   35.4739  -10.8916   40.7121 C   0  0  0  0  0
   34.4212  -10.0150   40.0276 C   0  0  0  0  0
   34.2965  -10.0997   38.5494 C   0  0  0  0  0
   35.1190  -10.9804   37.8449 C   0  0  0  0  0
   34.9859  -11.0224   36.4538 C   0  0  0  0  0
   34.0356  -10.2281   35.8106 C   0  0  0  0  0
   33.2290   -9.3451   36.5247 C   0  0  0  0  0
   33.3668   -9.2674   37.8958 C   0  0  0  0  0
   32.5198   -8.4002   38.6205 C   0  0  0  0  0
   32.6366   -8.3171   40.0104 C   0  0  0  0  0
   33.5769   -9.0994   40.7057 C   0  0  0  0  0
   37.4622  -10.6394   42.2546 C   0  0  0  0  0
   38.1144   -8.8199   43.8077 C   0  0  0  0  0
   39.1635   -7.9078   44.2319 C   0  0  0  0  0
   38.7591   -6.6795   45.0032 C   0  0  0  0  0
   38.3626   -5.7380   43.8423 C   0  0  0  0  0
   41.6211   -8.3131   44.0631 C   0  0  0  0  0
   42.9323   -7.8049   43.3778 C   0  0  0  0  0
   43.2888   -6.5023   44.1455 C   0  0  0  0  0
   44.5817   -5.8515   43.5646 C   0  0  0  0  0
   45.7139   -6.9131   43.6993 C   0  0  0  0  0
   45.3607   -8.2429   42.9732 C   0  0  0  0  0
   44.0646   -8.8703   43.5551 C   0  0  0  0  0
   42.3528   -8.5126   41.0824 C   0  0  0  0  0
   38.3985   -9.7050   42.8672 N   0  0  0  0  0
   37.4502   -4.8060   44.1231 N   0  0  0  0  0
   40.4836   -7.7973   43.6096 N   0  0  0  0  0
   42.7124   -7.5241   41.9284 N   0  0  0  0  0
   43.8125   -8.9951   36.5016 O   0  0  0  0  0
   44.2455   -7.1321   37.7216 O   0  0  0  0  0
   38.2252   -5.7600   32.4964 O   0  0  0  0  0
   37.9176   -4.7905   34.4614 O   0  0  0  0  0
   42.0848   -3.7963   33.9608 O   0  0  0  0  0
   40.1608   -2.9286   33.2802 O   0  0  0  0  0
   36.9672   -8.5858   44.1568 O   0  0  0  0  0
   38.8460   -5.9025   42.6735 O   0  0  0  0  0
   41.6522   -9.1365   44.9653 O   0  0  0  0  0
   42.2077   -9.6581   41.4659 O   0  0  0  0  0
 46  1  2  0  0  0
  1  2  1  0  0  0
  1 47  1  0  0  0
  2  3  1  0  0  0
  4  3  1  0  0  0
  3 41  1  0  0  0
 14  4  1  0  0  0
  5  4  1  0  0  0
  6  5  2  0  0  0
  5 13  1  0  0  0
  7  6  1  0  0  0
  7  8  2  0  0  0
  9  8  1  0  0  0
  8 12  1  0  0  0
 10  9  1  0  0  0
  9 11  1  0  0  0
 48 10  2  0  0  0
 10 49  1  0  0  0
 11 51  2  0  0  0
 11 50  1  0  0  0
 12 13  2  0  0  0
 15 14  1  0  0  0
 16 15  1  0  0  0
 16 17  1  0  0  0
 18 17  1  0  0  0
 17 29  1  0  0  0
 19 18  1  0  0  0
 20 19  2  0  0  0
 19 28  1  0  0  0
 21 20  1  0  0  0
 25 20  1  0  0  0
 22 21  2  0  0  0
 23 22  1  0  0  0
 23 24  2  0  0  0
 24 25  1  0  0  0
 25 26  2  0  0  0
 26 27  1  0  0  0
 27 28  2  0  0  0
 29 42  1  0  0  0
 42 30  1  0  0  0
 52 30  2  0  0  0
 30 31  1  0  0  0
 31 44  1  0  0  0
 31 32  1  0  0  0
 33 32  1  0  0  0
 53 33  2  0  0  0
 33 43  1  0  0  0
 44 34  1  0  0  0
 34 54  2  0  0  0
 34 35  1  0  0  0
 45 35  1  0  0  0
 35 40  1  0  0  0
 35 36  1  0  0  0
 36 37  1  0  0  0
 38 37  1  0  0  0
 39 38  1  0  0  0
 40 39  1  0  0  0
 55 41  2  0  0  0
 41 45  1  0  0  0
M  END
>  <MOLID> (2AOBA00)
2AOBA00

>  <SMILES_CANONICAL> (2AOBA00)
OC(=O)C[C@H]1C(=O)NC2(CCCCC2)C(=O)N[C@@H](CC(=O)N)C(=O)NC[C@@H](CCC[C@@H]1c1ccc(cc1)C(C(=O)O)C(=O)O)Cc1cccc2ccccc12	

>  <OB_MW> (2AOBA00)
756.337

>  <OB_logP> (2AOBA00)
5.2921

>  <OB_PSA> (2AOBA00)
242.29

>  <OB_MR> (2AOBA00)
213.711

>  <FINGERPRINT> (2AOBA00)
0000000000000111000000000000000000000001000000000011011000000000000000000001000000000001000000100000010000000001000001100000000000000000000110000000000001000000000000000000000000000000000000000000000000000000000000000000000000100000000000000000000000001000000000000010000000001001000000000000000000001000000010011100000000001000001100000000000000000000010000000000001110111000000000000001111100000000100000000000101000000000101000000010000000000001110000000000010000000000000000000000000000001100000000000000100000001000000000000000000000000000000000100000000000000000000000010000001101000000001000000001100000000000000000000000001000000001000000000000000000000001000000000011100000001100000011100001100000000001000000000000000000000011000000100101000000000000000110000000000000000000000110000000000010000000000000000000000000000000000000000000000000000000000000000001000000000000000000000000000000001000000000000000000000000010000000000000011000000000000110110010000000000010011000000000000000000000110000000010111000000000

>  <MCT_HBD> (2AOBA00)
7

>  <MCT_HBA> (2AOBA00)
14

>  <MACCS166> (2AOBA00)
000000000000000000000000010000000000000000000000010011000000010001000000000100110001000011110010101000011000011100001101101010111011000111110110111001101111111010111000

>  <EFINDSITE_POCKET> (2AOBA00)
1

>  <FINDSITE_CLUSTER_SMILES> (2AOBA00)
1

>  <FINDSITE_CLUSTER_MACCS> (2AOBA00)
1

$$$$

 OpenBabel07031101263D

 55 59  0  0  0  0  0  0  0  0999 V2000
   43.8317   -9.0542   39.0243 C   0  0  0  0  0
   42.2633   -9.0226   38.9991 C   0  0  0  0  0
   41.6054   -7.9895   39.9869 C   0  0  0  0  0
   42.0234   -8.1081   41.3825 C   0  0  0  0  0
   43.1774   -7.5797   43.5965 C   0  0  0  0  0
   44.1942   -8.6060   43.4612 C   0  0  0  0  0
   45.6801   -8.1601   43.0023 C   0  0  0  0  0
   46.1148   -6.8959   43.6221 C   0  0  0  0  0
   45.0655   -5.7529   43.3817 C   0  0  0  0  0
   43.6646   -6.1120   43.8844 C   0  0  0  0  0
   41.9981   -7.9591   44.4145 C   0  0  0  0  0
   39.5334   -7.2430   44.6806 C   0  0  0  0  0
   39.0253   -6.0661   45.3040 C   0  0  0  0  0
   38.5271   -5.4864   44.1919 C   0  0  0  0  0
   38.5383   -8.4725   44.6624 C   0  0  0  0  0
   38.1734  -10.6377   43.3982 C   0  0  0  0  0
   36.8969  -10.0634   42.7465 C   0  0  0  0  0
   35.9014  -11.2400   42.6778 C   0  0  0  0  0
   34.5010  -10.8226   42.2651 C   0  0  0  0  0
   33.5790  -10.1130   43.2274 C   0  0  0  0  0
   32.2201   -9.8721   42.8295 C   0  0  0  0  0
   31.3108   -9.1697   43.7561 C   0  0  0  0  0
   31.7751   -8.8771   45.0216 C   0  0  0  0  0
   33.0610   -9.1719   45.4662 C   0  0  0  0  0
   31.7776  -10.2179   41.5199 C   0  0  0  0  0
   32.6283  -10.9345   40.6628 C   0  0  0  0  0
   34.0290   -9.7431   44.5858 C   0  0  0  0  0
   34.0227  -11.1703   40.9947 C   0  0  0  0  0
   37.1576   -9.6410   41.3056 C   0  0  0  0  0
   38.1383   -8.5227   40.9350 C   0  0  0  0  0
   39.1767   -8.6233   40.0867 C   0  0  0  0  0
   40.1474   -7.4329   39.8005 C   0  0  0  0  0
   39.8698   -6.8042   38.4757 C   0  0  0  0  0
   40.2687   -5.4761   38.2316 C   0  0  0  0  0
   40.0946   -4.8164   37.0202 C   0  0  0  0  0
   39.6023   -5.6271   35.9133 C   0  0  0  0  0
   39.3441   -6.9925   36.1344 C   0  0  0  0  0
   39.3616   -5.1330   34.5093 C   0  0  0  0  0
   37.9465   -4.7908   34.2506 C   0  0  0  0  0
   40.3311   -4.0804   34.1483 C   0  0  0  0  0
   39.4691   -7.5909   37.4048 C   0  0  0  0  0
   42.6486   -7.2683   42.2307 N   0  0  0  0  0
   40.9671   -7.2202   44.2935 N   0  0  0  0  0
   37.4534   -4.7667   44.2907 N   0  0  0  0  0
   38.9330   -9.2879   43.6564 N   0  0  0  0  0
   44.2132   -7.9273   38.6759 O   0  0  0  0  0
   44.6494   -9.9992   39.4659 O   0  0  0  0  0
   41.5940   -9.1675   41.8785 O   0  0  0  0  0
   42.1270   -8.8135   45.2287 O   0  0  0  0  0
   39.0872   -5.6354   43.1245 O   0  0  0  0  0
   37.6076   -8.7039   45.4510 O   0  0  0  0  0
   37.2303   -4.6142   35.2494 O   0  0  0  0  0
   37.4377   -4.7963   33.1113 O   0  0  0  0  0
   41.5417   -4.4593   34.2624 O   0  0  0  0  0
   39.9053   -2.9890   33.6902 O   0  0  0  0  0
 47  1  2  0  0  0
  1  2  1  0  0  0
  1 46  1  0  0  0
  2  3  1  0  0  0
  4  3  1  0  0  0
  3 32  1  0  0  0
 48  4  2  0  0  0
 42  4  1  0  0  0
  6  5  1  0  0  0
 11  5  1  0  0  0
  5 10  1  0  0  0
  5 42  1  0  0  0
  6  7  1  0  0  0
  7  8  1  0  0  0
  8  9  1  0  0  0
 10  9  1  0  0  0
 49 11  2  0  0  0
 11 43  1  0  0  0
 15 12  1  0  0  0
 43 12  1  0  0  0
 12 13  1  0  0  0
 13 14  1  0  0  0
 14 50  2  0  0  0
 14 44  1  0  0  0
 51 15  2  0  0  0
 15 45  1  0  0  0
 16 45  1  0  0  0
 16 17  1  0  0  0
 18 17  1  0  0  0
 17 29  1  0  0  0
 18 19  1  0  0  0
 20 19  2  0  0  0
 19 28  1  0  0  0
 27 20  1  0  0  0
 20 21  1  0  0  0
 22 21  1  0  0  0
 21 25  2  0  0  0
 23 22  2  0  0  0
 24 23  1  0  0  0
 24 27  2  0  0  0
 26 25  1  0  0  0
 28 26  2  0  0  0
 29 30  1  0  0  0
 30 31  2  0  0  0
 31 32  1  0  0  0
 32 33  1  0  0  0
 33 41  2  0  0  0
 33 34  1  0  0  0
 34 35  2  0  0  0
 35 36  1  0  0  0
 37 36  2  0  0  0
 36 38  1  0  0  0
 41 37  1  0  0  0
 38 40  1  0  0  0
 38 39  1  0  0  0
 52 39  2  0  0  0
 39 53  1  0  0  0
 54 40  2  0  0  0
 40 55  1  0  0  0
M  END
>  <MOLID> (2AOAB01)
2AOAB01

>  <SMILES_CANONICAL> (2AOAB01)
OC(=O)C[C@@H]1C(=O)NC2(CCCCC2)C(=O)N[C@H](CC(=O)N)C(=O)NC[C@@H](CC=C[C@@H]1c1ccc(cc1)C(C(=O)O)C(=O)O)Cc1cccc2ccccc12	

>  <OB_MW> (2AOAB01)
754.321

>  <OB_logP> (2AOAB01)
5.0681

>  <OB_PSA> (2AOAB01)
242.29

>  <OB_MR> (2AOAB01)
213.237

>  <FINGERPRINT> (2AOAB01)
0000000000000111000000000000000000000001000000000011011000000000000000000001000000000001000000100000010000000001000001100000000000000000000110000000000001000000000000001000000000000000000000000000000000000000000000000000000100100000000000000000010000001010000100000010000000001001000000000000000010011000100010011100100000001000001100000000000000000000010000000000001110111000000000000001111100000010100000000000101000000000001000000010000000000001110000000000010000000100000000000000000000001100000000000000100000001000000000000100000000000000000000100001000000000000000000010000001101100000001000000001100000000010000000000000101000000001000000000000000000000001000000000011100000001100000011100001100000000001000000001000000000000011000000100101000000000000000110000000000000100000000110000000000010000000000000000010000000000000000000000100000001000000000000001001000000000000000000000000000000001100000000000000000000000010100000000000011000000000000110110010010000000010011000000000000000000000110000000010111000000000

>  <MCT_HBD> (2AOAB01)
7

>  <MCT_HBA> (2AOAB01)
14

>  <MACCS166> (2AOAB01)
000000000000000000000000010000000000000000000000010011000000010001000000000100110101000011110010101100011000011100001101101010111011000111110110111001101111111010111000

>  <EFINDSITE_POCKET> (2AOAB01)
1

>  <FINDSITE_CLUSTER_SMILES> (2AOAB01)
1

>  <FINDSITE_CLUSTER_MACCS> (2AOAB01)
1

$$$$

 OpenBabel07031101553D

 36 36  0  0  0  0  0  0  0  0999 V2000
   39.9012   -6.3521   35.7746 C   0  0  0  0  0
   40.4556   -5.4234   36.6558 C   0  0  0  0  0
   40.6778   -5.7683   37.9872 C   0  0  0  0  0
   40.3493   -7.0415   38.4489 C   0  0  0  0  0
   39.7824   -7.9625   37.5781 C   0  0  0  0  0
   40.6540   -7.4755   39.8870 C   0  0  0  0  0
   42.0965   -7.9516   40.0871 C   0  0  0  0  0
   42.4777   -9.1144   39.1634 C   0  0  0  0  0
   42.8495   -8.6547   37.7513 C   0  0  0  0  0
   42.9077   -9.1904   35.4142 C   0  0  0  0  0
   42.3301   -8.3933   41.5350 C   0  0  0  0  0
   43.2383   -7.7158   43.7288 C   0  0  0  0  0
   42.0395   -8.1810   44.5619 C   0  0  0  0  0
   39.6671   -7.8657   45.0789 C   0  0  0  0  0
   38.7480   -8.7710   44.2561 C   0  0  0  0  0
   38.9485   -6.5786   45.4978 C   0  0  0  0  0
   38.5401   -5.7115   44.3056 C   0  0  0  0  0
   43.8530   -6.4495   44.3325 C   0  0  0  0  0
   45.0940   -6.0180   43.5478 C   0  0  0  0  0
   44.2237   -6.6479   45.8049 C   0  0  0  0  0
   39.5601   -7.6137   36.2460 C   0  0  0  0  0
   42.4142   -9.4493   36.7754 N   0  0  0  0  0
   42.9012   -7.4816   42.3128 N   0  0  0  0  0
   40.8979   -7.5382   44.3420 N   0  0  0  0  0
   39.3417   -9.4258   43.2635 N   0  0  0  0  0
   37.5295   -4.8815   44.5408 N   0  0  0  0  0
   41.5196   -4.2402   34.2746 O   0  0  0  0  0
   40.0747   -4.8835   32.2488 O   0  0  0  0  0
   39.0038   -3.6853   34.2373 O   0  0  0  0  0
   39.7625   -6.1519   34.4350 O   0  0  0  0  0
   43.5073   -7.6334   37.5701 O   0  0  0  0  0
   42.1677   -9.0981   45.3741 O   0  0  0  0  0
   37.5528   -8.8767   44.5281 O   0  0  0  0  0
   39.1180   -5.7996   43.2209 O   0  0  0  0  0
   41.9907   -9.5114   41.9221 O   0  0  0  0  0
   40.0325   -4.6757   33.8448 P   0  0  0  0  0
 30  1  1  0  0  0
  1 21  2  0  0  0
  1  2  1  0  0  0
  2  3  2  0  0  0
  3  4  1  0  0  0
  5  4  2  0  0  0
  4  6  1  0  0  0
 21  5  1  0  0  0
  7  6  1  0  0  0
  8  7  1  0  0  0
  7 11  1  0  0  0
  9  8  1  0  0  0
 22  9  1  0  0  0
 31  9  2  0  0  0
 10 22  2  0  0  0
 11 35  2  0  0  0
 11 23  1  0  0  0
 23 12  1  0  0  0
 12 18  1  0  0  0
 12 13  1  0  0  0
 13 24  1  0  0  0
 13 32  2  0  0  0
 15 14  1  0  0  0
 24 14  1  0  0  0
 14 16  1  0  0  0
 25 15  1  0  0  0
 15 33  2  0  0  0
 17 16  1  0  0  0
 34 17  2  0  0  0
 17 26  1  0  0  0
 19 18  1  0  0  0
 18 20  1  0  0  0
 36 27  1  0  0  0
 28 36  2  0  0  0
 36 29  1  0  0  0
 36 30  1  0  0  0
M  END
>  <MOLID> (3C7IA00)
3C7IA00

>  <SMILES_CANONICAL> (3C7IA00)
C=NC(=O)C[C@@H](Cc1ccc(cc1)OP(=O)(O)O)C(=O)N[C@@H](C(C)C)C(=O)N[C@@H](CC(=O)N)C(=O)N	

>  <OB_MW> (3C7IA00)
527.178

>  <OB_logP> (3C7IA00)
1.1028

>  <OB_PSA> (3C7IA00)
250.38

>  <OB_MR> (3C7IA00)
127.081

>  <FINGERPRINT> (3C7IA00)
0000000000100011000000000000000000000001000000000011011000001000001000000001000000000001000000100000010000000001000001100000000000000000000000000000000000010110000000000000000000000000000000000000001000000010010000000000000000100000000000000000000000001000000010000011000000001000000000000000000000001000000010011100000000001000001100000000000000000000010000000100001110110000000000000000111000000000100000000000001000000000001000100010000000000001100000000000000000000000000000000000000000000100000000000000100000000000000000000000100000100000000000100000000000000000000000010000000000000000000000000001100000000000000000100000001000000001000000000000000000000001000000000011110000001000000001100000000000000000000000000000000000000011000000100100000000000000000110000000000000000000000110000100000010000000000000000000000000000000010000100001001000010000000000000001000000000011000000000000100000001010000000000000000000000010000000000000011000000000000110110010000000000000010000000000000000100000110100101010011000000000

>  <MCT_HBD> (3C7IA00)
6

>  <MCT_HBA> (3C7IA00)
14

>  <MACCS166> (3C7IA00)
000000000000000000000000000010000100000000100001010011000000000000000000010101110001000001010010101001010100011110001010000101100111000100111110010110110111111110111000

>  <EFINDSITE_POCKET> (3C7IA00)
1

>  <FINDSITE_CLUSTER_SMILES> (3C7IA00)
2

>  <FINDSITE_CLUSTER_MACCS> (3C7IA00)
2

$$$$

 OpenBabel07031101343D

 36 37  0  0  0  0  0  0  0  0999 V2000
   39.9497   -5.5093   36.5344 C   0  0  0  0  0
   40.4338   -5.0484   37.7748 C   0  0  0  0  0
   40.9398   -5.9600   38.7187 C   0  0  0  0  0
   40.9684   -7.3420   38.4318 C   0  0  0  0  0
   41.4551   -8.3504   39.5054 C   0  0  0  0  0
   42.7250   -7.9333   40.2689 C   0  0  0  0  0
   42.7865   -8.3438   41.7475 C   0  0  0  0  0
   43.5043   -7.5973   44.0107 C   0  0  0  0  0
   44.0855   -6.3029   44.6179 C   0  0  0  0  0
   45.3941   -5.9301   43.9174 C   0  0  0  0  0
   44.3360   -6.4528   46.1289 C   0  0  0  0  0
   42.2133   -8.0183   44.7441 C   0  0  0  0  0
   39.7881   -7.7332   45.0104 C   0  0  0  0  0
   38.9289   -8.6290   44.0951 C   0  0  0  0  0
   39.0239   -6.4367   45.3778 C   0  0  0  0  0
   38.5883   -5.6235   44.1426 C   0  0  0  0  0
   42.7976   -9.0834   39.2620 C   0  0  0  0  0
   43.5360   -8.7934   37.9380 C   0  0  0  0  0
   44.6285  -10.0245   36.3205 C   0  0  0  0  0
   40.4927   -7.8038   37.1875 C   0  0  0  0  0
   39.9848   -6.8897   36.2392 C   0  0  0  0  0
   43.3086   -7.4150   42.5543 N   0  0  0  0  0
   41.0845   -7.4084   44.3660 N   0  0  0  0  0
   39.5988   -9.2750   43.1395 N   0  0  0  0  0
   37.5090   -4.8669   44.3234 N   0  0  0  0  0
   43.5638   -9.8145   37.0817 N   0  0  0  0  0
   39.5205   -2.9887   33.7474 O   0  0  0  0  0
   41.6410   -4.1358   34.6283 O   0  0  0  0  0
   39.8931   -5.4775   33.3123 O   0  0  0  0  0
   39.3130   -4.6243   35.7016 O   0  0  0  0  0
   42.2649   -8.8676   45.6348 O   0  0  0  0  0
   37.7111   -8.7240   44.2657 O   0  0  0  0  0
   39.1999   -5.7014   43.0781 O   0  0  0  0  0
   42.3438   -9.4289   42.1335 O   0  0  0  0  0
   44.0554   -7.6993   37.7205 O   0  0  0  0  0
   40.0846   -4.3828   34.2948 P   0  0  0  0  0
  2  1  2  0  0  0
  1 21  1  0  0  0
  1 30  1  0  0  0
  3  2  1  0  0  0
  3  4  2  0  0  0
  5  4  1  0  0  0
  4 20  1  0  0  0
  6  5  1  0  0  0
 17  5  1  0  0  0
  7  6  1  0  0  0
  6 17  1  0  0  0
 22  7  1  0  0  0
  7 34  2  0  0  0
  9  8  1  0  0  0
  8 22  1  0  0  0
  8 12  1  0  0  0
 10  9  1  0  0  0
 11  9  1  0  0  0
 31 12  2  0  0  0
 12 23  1  0  0  0
 23 13  1  0  0  0
 13 15  1  0  0  0
 13 14  1  0  0  0
 24 14  1  0  0  0
 14 32  2  0  0  0
 15 16  1  0  0  0
 33 16  2  0  0  0
 16 25  1  0  0  0
 18 17  1  0  0  0
 35 18  2  0  0  0
 18 26  1  0  0  0
 19 26  2  0  0  0
 20 21  2  0  0  0
 36 27  1  0  0  0
 28 36  2  0  0  0
 36 29  1  0  0  0
 36 30  1  0  0  0
M  END
>  <MOLID> (2HUWA00)
2HUWA00

>  <SMILES_CANONICAL> (2HUWA00)
C=NC(=O)[C@@H]1[C@H](c2ccc(cc2)OP(=O)(O)O)[C@H]1C(=O)N[C@@H](C(C)C)C(=O)N[C@@H](CC(=O)N)C(=O)N	

>  <OB_MW> (2HUWA00)
525.162

>  <OB_logP> (2HUWA00)
0.8836

>  <OB_PSA> (2HUWA00)
250.38

>  <OB_MR> (2HUWA00)
124.967

>  <FINGERPRINT> (2HUWA00)
0000000000100011000000000000000000000001000000000011011000001000001000000001000000000001000000100000010000000001000001100000000000000000000000000000000000010110000000000000000000000000000000000000001000000010010000000000000000100000000000000000000000001000000010000011000000001000000000000000000000001010000010011100000000001000001100000000000000000000010000000100001110110000000000000100111000000000100000000001001000000001001000100010000000000001100000000000000000000000000000000000000000000100000000000000100000000000000000000000100000100000000000100000000000000000000000010000000000000000000000000001100000000000000000100000001000000001000000000000000000000001000000000011110000001000000001100010000000000000000000000000000000000011000000100101000000000000000110000000000000000000000110000100000010000000000000000000000000000000010000100001001000010000000000000001000000000011000000000000100000001010000000000000000000000010000000000000011000000000000110110010000000000000010000000000000000100000110100101010011000000000

>  <MCT_HBD> (2HUWA00)
6

>  <MCT_HBA> (2HUWA00)
14

>  <MACCS166> (2HUWA00)
000000000000000000000100000010000100000000100001010011000000010000000000010101110001000001010010101001010100011110001010000101100111000100111110010111110111111110111000

>  <EFINDSITE_POCKET> (2HUWA00)
1

>  <FINDSITE_CLUSTER_SMILES> (2HUWA00)
2

>  <FINDSITE_CLUSTER_MACCS> (2HUWA00)
2

$$$$

 OpenBabel07031101343D

 36 37  0  0  0  0  0  0  0  0999 V2000
   39.7170   -5.3785   36.2895 C   0  0  0  0  0
   40.2016   -4.9609   37.5403 C   0  0  0  0  0
   40.7022   -5.9021   38.4623 C   0  0  0  0  0
   40.7200   -7.2734   38.1397 C   0  0  0  0  0
   41.1681   -8.3139   39.2051 C   0  0  0  0  0
   42.4428   -7.9505   39.9923 C   0  0  0  0  0
   42.4994   -8.3978   41.4550 C   0  0  0  0  0
   43.2818   -7.7498   43.7273 C   0  0  0  0  0
   43.8362   -6.4596   44.3733 C   0  0  0  0  0
   45.1329   -6.0274   43.6818 C   0  0  0  0  0
   44.0932   -6.6508   45.8752 C   0  0  0  0  0
   41.9801   -8.1952   44.4342 C   0  0  0  0  0
   39.5688   -7.8778   44.7120 C   0  0  0  0  0
   38.8446   -6.5879   45.1502 C   0  0  0  0  0
   38.5301   -5.6479   43.9716 C   0  0  0  0  0
   38.6903   -8.7033   43.7551 C   0  0  0  0  0
   42.4962   -9.0808   38.9777 C   0  0  0  0  0
   43.2990   -8.7961   37.7005 C   0  0  0  0  0
   44.7913  -10.2269   36.6834 C   0  0  0  0  0
   40.2439   -7.6985   36.8771 C   0  0  0  0  0
   39.7438   -6.7530   35.9518 C   0  0  0  0  0
   43.0865   -7.5232   42.2752 N   0  0  0  0  0
   40.8665   -7.5437   44.0888 N   0  0  0  0  0
   37.5666   -4.7627   44.2090 N   0  0  0  0  0
   39.3300   -9.2447   42.7248 N   0  0  0  0  0
   43.5440   -9.8690   36.9486 N   0  0  0  0  0
   39.3709   -2.7113   33.6357 O   0  0  0  0  0
   41.4294   -3.9834   34.4700 O   0  0  0  0  0
   39.6526   -5.1920   33.0561 O   0  0  0  0  0
   39.0887   -4.4625   35.4845 O   0  0  0  0  0
   39.1337   -5.7356   42.9027 O   0  0  0  0  0
   37.4832   -8.8334   43.9607 O   0  0  0  0  0
   42.0078   -9.1027   45.2633 O   0  0  0  0  0
   42.0269   -9.4771   41.8115 O   0  0  0  0  0
   43.7047   -7.6648   37.4390 O   0  0  0  0  0
   39.8772   -4.1629   34.1036 P   0  0  0  0  0
 30  1  1  0  0  0
  2  1  2  0  0  0
  1 21  1  0  0  0
  2  3  1  0  0  0
  3  4  2  0  0  0
  4 20  1  0  0  0
  4  5  1  0  0  0
  6  5  1  0  0  0
  5 17  1  0  0  0
  6  7  1  0  0  0
  6 17  1  0  0  0
 22  7  1  0  0  0
  7 34  2  0  0  0
  9  8  1  0  0  0
 22  8  1  0  0  0
  8 12  1  0  0  0
 10  9  1  0  0  0
  9 11  1  0  0  0
 23 12  1  0  0  0
 12 33  2  0  0  0
 14 13  1  0  0  0
 23 13  1  0  0  0
 13 16  1  0  0  0
 15 14  1  0  0  0
 24 15  1  0  0  0
 31 15  2  0  0  0
 16 25  1  0  0  0
 16 32  2  0  0  0
 18 17  1  0  0  0
 35 18  2  0  0  0
 18 26  1  0  0  0
 26 19  2  0  0  0
 21 20  2  0  0  0
 27 36  2  0  0  0
 28 36  1  0  0  0
 36 29  1  0  0  0
 36 30  1  0  0  0
M  END
>  <MOLID> (2HUWB00)
2HUWB00

>  <SMILES_CANONICAL> (2HUWB00)
C=NC(=O)[C@@H]1[C@H](c2ccc(cc2)OP(=O)(O)O)[C@H]1C(=O)N[C@@H](C(C)C)C(=O)N[C@@H](CC(=O)N)C(=O)N	

>  <OB_MW> (2HUWB00)
525.162

>  <OB_logP> (2HUWB00)
0.8836

>  <OB_PSA> (2HUWB00)
250.38

>  <OB_MR> (2HUWB00)
124.967

>  <FINGERPRINT> (2HUWB00)
0000000000100011000000000000000000000001000000000011011000001000001000000001000000000001000000100000010000000001000001100000000000000000000000000000000000010110000000000000000000000000000000000000001000000010010000000000000000100000000000000000000000001000000010000011000000001000000000000000000000001010000010011100000000001000001100000000000000000000010000000100001110110000000000000100111000000000100000000001001000000001001000100010000000000001100000000000000000000000000000000000000000000100000000000000100000000000000000000000100000100000000000100000000000000000000000010000000000000000000000000001100000000000000000100000001000000001000000000000000000000001000000000011110000001000000001100010000000000000000000000000000000000011000000100101000000000000000110000000000000000000000110000100000010000000000000000000000000000000010000100001001000010000000000000001000000000011000000000000100000001010000000000000000000000010000000000000011000000000000110110010000000000000010000000000000000100000110100101010011000000000

>  <MCT_HBD> (2HUWB00)
6

>  <MCT_HBA> (2HUWB00)
14

>  <MACCS166> (2HUWB00)
000000000000000000000100000010000100000000100001010011000000010000000000010101110001000001010010101001010100011110001010000101100111000100111110010111110111111110111000

>  <EFINDSITE_POCKET> (2HUWB00)
1

>  <FINDSITE_CLUSTER_SMILES> (2HUWB00)
2

>  <FINDSITE_CLUSTER_MACCS> (2HUWB00)
2

$$$$

 OpenBabel07031102043D

  8  7  0  0  0  0  0  0  0  0999 V2000
   40.4583   -4.1660   33.9423 C   0  0  0  0  0
   39.2159   -4.9936   33.7433 C   0  0  0  0  0
   39.5940   -6.3455   33.1351 C   0  0  0  0  0
   38.3922   -7.2548   33.1318 C   0  0  0  0  0
   38.3121   -8.1530   33.9300 O   0  0  0  0  0
   37.4086   -7.0660   32.2445 O   0  0  0  0  0
   40.8662   -3.4643   33.0474 O   0  0  0  0  0
   41.1127   -4.2031   35.1098 O   0  0  0  0  0
  2  1  1  0  0  0
  1  8  2  0  0  0
  1  7  1  0  0  0
  3  2  1  0  0  0
  4  3  1  0  0  0
  5  4  2  0  0  0
  6  4  1  0  0  0
M  END
>  <MOLID> (3GXWC00)
3GXWC00

>  <SMILES_CANONICAL> (3GXWC00)
OC(=O)CCC(=O)O	

>  <OB_MW> (3GXWC00)
118.027

>  <OB_logP> (3GXWC00)
-0.0642

>  <OB_PSA> (3GXWC00)
74.6

>  <OB_MR> (3GXWC00)
24.8856

>  <FINGERPRINT> (3GXWC00)
0000000000000100000000000000000000000000000000000000000000000000000000000000000000000000000000000000000000000000000000000000000000000000001000000000000000000000000000000000000000000000000000000000000000000000000000000000000000000000000000000000000000000000000000000000000000000000000000000000000000000000000000000000000000000000000000000000000000000000010000000000000000010000000000000000010000000000100000000000000000000000000000000000000000000000000000000000000000000000000000000000000000001000000000000000100000000000000000000000000000000000000000000000000000000000000000000000000001000000000000000000000000000000000000000000000000000001000000000000000000000000000000000000000000000000000010100000000000000001000000000000000000000000000000000000000000000000000100000000000000000000000000000000000000000000000000000000000000000000000000000000000000000000000000000000000000000000000000000000000000000000000000000000000000000010000000000000000000000000000000000000000000000000000000000000000000000000000000000000000000000000

>  <MCT_HBD> (3GXWC00)
2

>  <MCT_HBA> (3GXWC00)
4

>  <MACCS166> (3GXWC00)
000000000000000000000000000000000000000000000000000000000000000000000000000000000000000001000000000000010000000000000100001000000011000100110000011000000110101000010000

>  <EFINDSITE_POCKET> (3GXWC00)
1

>  <FINDSITE_CLUSTER_SMILES> (3GXWC00)
3

>  <FINDSITE_CLUSTER_MACCS> (3GXWC00)
3

$$$$

 OpenBabel07031102043D

  8  7  0  0  0  0  0  0  0  0999 V2000
   40.3757   -4.2698   33.9893 C   0  0  0  0  0
   39.1779   -5.1821   33.8743 C   0  0  0  0  0
   39.5940   -6.4948   33.2018 C   0  0  0  0  0
   38.3936   -7.3941   33.0851 C   0  0  0  0  0
   38.3121   -8.3840   33.7765 O   0  0  0  0  0
   37.4099   -7.0945   32.2245 O   0  0  0  0  0
   41.0853   -4.2373   35.1212 O   0  0  0  0  0
   40.6957   -3.5695   33.0571 O   0  0  0  0  0
  2  1  1  0  0  0
  1  8  2  0  0  0
  1  7  1  0  0  0
  3  2  1  0  0  0
  4  3  1  0  0  0
  5  4  2  0  0  0
  6  4  1  0  0  0
M  END
>  <MOLID> (3GXWA00)
3GXWA00

>  <SMILES_CANONICAL> (3GXWA00)
OC(=O)CCC(=O)O	

>  <OB_MW> (3GXWA00)
118.027

>  <OB_logP> (3GXWA00)
-0.0642

>  <OB_PSA> (3GXWA00)
74.6

>  <OB_MR> (3GXWA00)
24.8856

>  <FINGERPRINT> (3GXWA00)
0000000000000100000000000000000000000000000000000000000000000000000000000000000000000000000000000000000000000000000000000000000000000000001000000000000000000000000000000000000000000000000000000000000000000000000000000000000000000000000000000000000000000000000000000000000000000000000000000000000000000000000000000000000000000000000000000000000000000000010000000000000000010000000000000000010000000000100000000000000000000000000000000000000000000000000000000000000000000000000000000000000000001000000000000000100000000000000000000000000000000000000000000000000000000000000000000000000001000000000000000000000000000000000000000000000000000001000000000000000000000000000000000000000000000000000010100000000000000001000000000000000000000000000000000000000000000000000100000000000000000000000000000000000000000000000000000000000000000000000000000000000000000000000000000000000000000000000000000000000000000000000000000000000000000010000000000000000000000000000000000000000000000000000000000000000000000000000000000000000000000000

>  <MCT_HBD> (3GXWA00)
2

>  <MCT_HBA> (3GXWA00)
4

>  <MACCS166> (3GXWA00)
000000000000000000000000000000000000000000000000000000000000000000000000000000000000000001000000000000010000000000000100001000000011000100110000011000000110101000010000

>  <EFINDSITE_POCKET> (3GXWA00)
1

>  <FINDSITE_CLUSTER_SMILES> (3GXWA00)
4

>  <FINDSITE_CLUSTER_MACCS> (3GXWA00)
4

$$$$

 OpenBabel07031101263D

 55 59  0  0  0  0  0  0  0  0999 V2000
   35.6576   -8.9851   50.1006 C   0  0  0  0  0
   35.4615  -10.2026   50.9600 C   0  0  0  0  0
   35.8200  -10.2070   52.4435 C   0  0  0  0  0
   36.9666   -9.4490   52.9859 C   0  0  0  0  0
   38.2047   -7.6290   54.2984 C   0  0  0  0  0
   38.2486   -6.8030   53.0046 C   0  0  0  0  0
   39.3505   -5.7499   53.3484 C   0  0  0  0  0
   38.9593   -4.9423   54.6601 C   0  0  0  0  0
   38.5283   -5.8411   55.8424 C   0  0  0  0  0
   37.4472   -6.8856   55.4277 C   0  0  0  0  0
   39.2992   -8.6776   54.5221 C   0  0  0  0  0
   39.7624  -10.7999   55.8788 C   0  0  0  0  0
   40.3002  -10.8837   57.3163 C   0  0  0  0  0
   40.3541   -9.5824   58.0663 C   0  0  0  0  0
   40.3801  -11.8004   54.9385 C   0  0  0  0  0
   39.9784  -12.9773   52.8473 C   0  0  0  0  0
   39.2691  -14.2263   53.3748 C   0  0  0  0  0
   40.0230  -15.4857   52.8786 C   0  0  0  0  0
   39.7912  -16.6394   53.8492 C   0  0  0  0  0
   40.3695  -16.7186   55.1298 C   0  0  0  0  0
   40.0667  -17.7956   55.9883 C   0  0  0  0  0
   39.1694  -18.7986   55.6057 C   0  0  0  0  0
   38.5932  -18.7222   54.3469 C   0  0  0  0  0
   37.7363  -19.7159   53.9580 C   0  0  0  0  0
   37.1481  -19.6295   52.7055 C   0  0  0  0  0
   37.4139  -18.5886   51.8311 C   0  0  0  0  0
   38.2900  -17.5971   52.1986 C   0  0  0  0  0
   38.8630  -17.6901   53.4567 C   0  0  0  0  0
   37.7738  -14.2677   53.0219 C   0  0  0  0  0
   37.0256  -13.0679   53.6375 C   0  0  0  0  0
   36.0792  -12.5169   52.8796 C   0  0  0  0  0
   35.2444  -11.3011   53.3223 C   0  0  0  0  0
   33.7483  -11.5624   53.1993 C   0  0  0  0  0
   32.8867  -10.9124   54.0997 C   0  0  0  0  0
   31.4650  -11.1042   54.0400 C   0  0  0  0  0
   30.9669  -11.9935   53.0732 C   0  0  0  0  0
   31.8431  -12.6518   52.2169 C   0  0  0  0  0
   29.4973  -12.2987   52.9963 C   0  0  0  0  0
   29.3152  -13.7378   53.4918 C   0  0  0  0  0
   28.7443  -11.3282   53.8790 C   0  0  0  0  0
   33.2298  -12.4707   52.2890 C   0  0  0  0  0
   36.9734   -8.3761   53.8329 N   0  0  0  0  0
   39.0189   -9.6638   55.3322 N   0  0  0  0  0
   39.6741   -9.5211   59.1991 N   0  0  0  0  0
   39.6879  -11.9613   53.8411 N   0  0  0  0  0
   35.6322   -9.1589   48.8566 O   0  0  0  0  0
   35.7651   -7.8722   50.6635 O   0  0  0  0  0
   37.9719   -9.9980   52.4878 O   0  0  0  0  0
   40.4190   -8.4606   53.9723 O   0  0  0  0  0
   40.9619   -8.6229   57.6129 O   0  0  0  0  0
   41.2780  -12.5560   55.2589 O   0  0  0  0  0
   30.0134  -14.3031   54.4013 O   0  0  0  0  0
   28.3640  -14.4033   53.0212 O   0  0  0  0  0
   28.5048  -11.5749   55.1050 O   0  0  0  0  0
   28.3709  -10.2812   53.3376 O   0  0  0  0  0
 47  1  2  0  0  0
 46  1  1  0  0  0
  1  2  1  0  0  0
  3  2  1  0  0  0
  4  3  1  0  0  0
  3 32  1  0  0  0
 48  4  2  0  0  0
 42  4  1  0  0  0
 11  5  1  0  0  0
  6  5  1  0  0  0
  5 10  1  0  0  0
  5 42  1  0  0  0
  7  6  1  0  0  0
  7  8  1  0  0  0
  8  9  1  0  0  0
  9 10  1  0  0  0
 49 11  2  0  0  0
 11 43  1  0  0  0
 15 12  1  0  0  0
 13 12  1  0  0  0
 12 43  1  0  0  0
 14 13  1  0  0  0
 50 14  2  0  0  0
 14 44  1  0  0  0
 51 15  2  0  0  0
 15 45  1  0  0  0
 16 45  1  0  0  0
 16 17  1  0  0  0
 18 17  1  0  0  0
 17 29  1  0  0  0
 18 19  1  0  0  0
 20 19  2  0  0  0
 19 28  1  0  0  0
 20 21  1  0  0  0
 21 22  2  0  0  0
 22 23  1  0  0  0
 28 23  2  0  0  0
 23 24  1  0  0  0
 24 25  2  0  0  0
 26 25  1  0  0  0
 27 26  2  0  0  0
 28 27  1  0  0  0
 29 30  1  0  0  0
 30 31  2  0  0  0
 31 32  1  0  0  0
 32 33  1  0  0  0
 33 41  2  0  0  0
 33 34  1  0  0  0
 34 35  2  0  0  0
 35 36  1  0  0  0
 37 36  2  0  0  0
 36 38  1  0  0  0
 41 37  1  0  0  0
 38 40  1  0  0  0
 38 39  1  0  0  0
 52 39  2  0  0  0
 39 53  1  0  0  0
 40 55  2  0  0  0
 40 54  1  0  0  0
M  END
>  <MOLID> (2AOBD00)
2AOBD00

>  <SMILES_CANONICAL> (2AOBD00)
OC(=O)C[C@@H]1C(=O)NC2(CCCCC2)C(=O)N[C@H](CC(=O)N)C(=O)NC[C@@H](CC=C[C@@H]1c1ccc(cc1)C(C(=O)O)C(=O)O)Cc1cccc2ccccc12	

>  <OB_MW> (2AOBD00)
754.321

>  <OB_logP> (2AOBD00)
5.0681

>  <OB_PSA> (2AOBD00)
242.29

>  <OB_MR> (2AOBD00)
213.237

>  <FINGERPRINT> (2AOBD00)
0000000000000111000000000000000000000001000000000011011000000000000000000001000000000001000000100000010000000001000001100000000000000000000110000000000001000000000000001000000000000000000000000000000000000000000000000000000100100000000000000000010000001010000100000010000000001001000000000000000010011000100010011100100000001000001100000000000000000000010000000000001110111000000000000001111100000010100000000000101000000000001000000010000000000001110000000000010000000100000000000000000000001100000000000000100000001000000000000100000000000000000000100001000000000000000000010000001101100000001000000001100000000010000000000000101000000001000000000000000000000001000000000011100000001100000011100001100000000001000000001000000000000011000000100101000000000000000110000000000000100000000110000000000010000000000000000010000000000000000000000100000001000000000000001001000000000000000000000000000000001100000000000000000000000010100000000000011000000000000110110010010000000010011000000000000000000000110000000010111000000000

>  <MCT_HBD> (2AOBD00)
7

>  <MCT_HBA> (2AOBD00)
14

>  <MACCS166> (2AOBD00)
000000000000000000000000010000000000000000000000010011000000010001000000000100110101000011110010101100011000011100001101101010111011000111110110111001101111111010111000

>  <EFINDSITE_POCKET> (2AOBD00)
2

>  <FINDSITE_CLUSTER_SMILES> (2AOBD00)
1

>  <FINDSITE_CLUSTER_MACCS> (2AOBD00)
1

$$$$

 OpenBabel07031101263D

 55 59  0  0  0  0  0  0  0  0999 V2000
   35.5491   -9.4784   49.5550 C   0  0  0  0  0
   35.1727  -10.7215   50.3500 C   0  0  0  0  0
   35.6705  -10.8798   51.7698 C   0  0  0  0  0
   35.1570  -12.0536   52.5538 C   0  0  0  0  0
   33.6767  -12.2938   52.4257 C   0  0  0  0  0
   32.8301  -11.6759   53.3675 C   0  0  0  0  0
   31.4129  -11.9050   53.3170 C   0  0  0  0  0
   30.8796  -12.6509   52.2918 C   0  0  0  0  0
   29.4103  -12.8676   52.1771 C   0  0  0  0  0
   29.0655  -14.3026   52.4293 C   0  0  0  0  0
   28.6052  -11.9327   53.0653 C   0  0  0  0  0
   31.7469  -13.2167   51.3321 C   0  0  0  0  0
   33.1183  -13.0186   51.3746 C   0  0  0  0  0
   36.0306  -13.1755   52.0012 C   0  0  0  0  0
   36.9051  -13.9172   52.7205 C   0  0  0  0  0
   37.6860  -14.9880   51.9605 C   0  0  0  0  0
   39.2018  -14.9257   52.2924 C   0  0  0  0  0
   39.8700  -13.6136   51.8576 C   0  0  0  0  0
   40.3712  -12.6789   54.0990 C   0  0  0  0  0
   39.8093  -11.7365   55.1037 C   0  0  0  0  0
   40.1366  -12.0139   56.5581 C   0  0  0  0  0
   40.3103  -10.8367   57.4563 C   0  0  0  0  0
   39.2536   -9.5812   53.8827 C   0  0  0  0  0
   38.1964   -8.4807   53.7770 C   0  0  0  0  0
   37.5731   -7.9921   55.0773 C   0  0  0  0  0
   38.5329   -6.8330   55.5531 C   0  0  0  0  0
   38.8062   -5.7303   54.4604 C   0  0  0  0  0
   39.2107   -6.3753   53.0632 C   0  0  0  0  0
   38.1579   -7.4709   52.6110 C   0  0  0  0  0
   39.9724  -16.1340   51.6827 C   0  0  0  0  0
   39.6297  -17.3685   52.4738 C   0  0  0  0  0
   38.6278  -18.2896   51.9451 C   0  0  0  0  0
   38.0840  -18.0148   50.7093 C   0  0  0  0  0
   37.1396  -18.8905   50.1883 C   0  0  0  0  0
   36.7979  -20.0192   50.9190 C   0  0  0  0  0
   37.3359  -20.2831   52.1732 C   0  0  0  0  0
   38.2608  -19.4031   52.6982 C   0  0  0  0  0
   38.8032  -19.6579   53.9491 C   0  0  0  0  0
   39.7487  -18.7688   54.4825 C   0  0  0  0  0
   40.1525  -17.6261   53.7679 C   0  0  0  0  0
   36.8717  -10.1533   52.3721 C   0  0  0  0  0
   39.6600  -12.6817   53.0032 N   0  0  0  0  0
   39.8324  -11.0374   58.6762 N   0  0  0  0  0
   38.9936  -10.6130   54.6657 N   0  0  0  0  0
   36.9333   -9.1653   53.3050 N   0  0  0  0  0
   35.4833   -9.5394   48.3123 O   0  0  0  0  0
   28.0197  -14.7669   51.8824 O   0  0  0  0  0
   29.7634  -15.0100   53.1826 O   0  0  0  0  0
   28.4283  -12.2743   54.2543 O   0  0  0  0  0
   28.2039  -10.8264   52.6132 O   0  0  0  0  0
   41.2845  -13.4845   54.3127 O   0  0  0  0  0
   40.8687   -9.8074   57.1203 O   0  0  0  0  0
   40.3620   -9.3280   53.3772 O   0  0  0  0  0
   37.8661  -10.6019   51.8234 O   0  0  0  0  0
   35.8121   -8.4341   50.1528 O   0  0  0  0  0
  2  1  1  0  0  0
  1 46  2  0  0  0
  1 55  1  0  0  0
  2  3  1  0  0  0
  4  3  1  0  0  0
  3 41  1  0  0  0
  5  4  1  0  0  0
  4 14  1  0  0  0
  6  5  2  0  0  0
 13  5  1  0  0  0
  7  6  1  0  0  0
  8  7  2  0  0  0
  9  8  1  0  0  0
  8 12  1  0  0  0
 10  9  1  0  0  0
 11  9  1  0  0  0
 47 10  2  0  0  0
 10 48  1  0  0  0
 49 11  2  0  0  0
 50 11  1  0  0  0
 12 13  2  0  0  0
 14 15  2  0  0  0
 15 16  1  0  0  0
 16 17  1  0  0  0
 17 30  1  0  0  0
 17 18  1  0  0  0
 42 18  1  0  0  0
 42 19  1  0  0  0
 20 19  1  0  0  0
 19 51  2  0  0  0
 44 20  1  0  0  0
 20 21  1  0  0  0
 21 22  1  0  0  0
 43 22  1  0  0  0
 22 52  2  0  0  0
 24 23  1  0  0  0
 44 23  1  0  0  0
 23 53  2  0  0  0
 45 24  1  0  0  0
 25 24  1  0  0  0
 24 29  1  0  0  0
 25 26  1  0  0  0
 26 27  1  0  0  0
 27 28  1  0  0  0
 29 28  1  0  0  0
 31 30  1  0  0  0
 32 31  2  0  0  0
 31 40  1  0  0  0
 37 32  1  0  0  0
 33 32  1  0  0  0
 34 33  2  0  0  0
 35 34  1  0  0  0
 35 36  2  0  0  0
 36 37  1  0  0  0
 37 38  2  0  0  0
 38 39  1  0  0  0
 39 40  2  0  0  0
 41 45  1  0  0  0
 41 54  2  0  0  0
M  END
>  <MOLID> (2AOBB00)
2AOBB00

>  <SMILES_CANONICAL> (2AOBB00)
OC(=O)C[C@@H]1C(=O)NC2(CCCCC2)C(=O)N[C@H](CC(=O)N)C(=O)NC[C@@H](CC=C[C@@H]1c1ccc(cc1)C(C(=O)O)C(=O)O)Cc1cccc2ccccc12	

>  <OB_MW> (2AOBB00)
754.321

>  <OB_logP> (2AOBB00)
5.0681

>  <OB_PSA> (2AOBB00)
242.29

>  <OB_MR> (2AOBB00)
213.237

>  <FINGERPRINT> (2AOBB00)
0000000000000111000000000000000000000001000000000011011000000000000000000001000000000001000000100000010000000001000001100000000000000000000110000000000001000000000000001000000000000000000000000000000000000000000000000000000100100000000000000000010000001010000100000010000000001001000000000000000010011000100010011100100000001000001100000000000000000000010000000000001110111000000000000001111100000010100000000000101000000000001000000010000000000001110000000000010000000100000000000000000000001100000000000000100000001000000000000100000000000000000000100001000000000000000000010000001101100000001000000001100000000010000000000000101000000001000000000000000000000001000000000011100000001100000011100001100000000001000000001000000000000011000000100101000000000000000110000000000000100000000110000000000010000000000000000010000000000000000000000100000001000000000000001001000000000000000000000000000000001100000000000000000000000010100000000000011000000000000110110010010000000010011000000000000000000000110000000010111000000000

>  <MCT_HBD> (2AOBB00)
7

>  <MCT_HBA> (2AOBB00)
14

>  <MACCS166> (2AOBB00)
000000000000000000000000010000000000000000000000010011000000010001000000000100110001000011110010101000011000011100001101101010111011000111110110111001101111111010111000

>  <EFINDSITE_POCKET> (2AOBB00)
2

>  <FINDSITE_CLUSTER_SMILES> (2AOBB00)
1

>  <FINDSITE_CLUSTER_MACCS> (2AOBB00)
1

$$$$

 OpenBabel07031101263D

 55 59  0  0  0  0  0  0  0  0999 V2000
   35.4541   -9.3010   49.5587 C   0  0  0  0  0
   35.1325  -10.5417   50.3273 C   0  0  0  0  0
   35.5960  -10.8144   51.7571 C   0  0  0  0  0
   34.9331  -11.8550   52.6638 C   0  0  0  0  0
   33.5010  -12.0676   52.6022 C   0  0  0  0  0
   32.9371  -12.9815   51.7644 C   0  0  0  0  0
   31.5721  -13.1712   51.7867 C   0  0  0  0  0
   30.6095  -12.4729   52.5543 C   0  0  0  0  0
   31.1911  -11.5360   53.3763 C   0  0  0  0  0
   29.0983  -12.8144   52.4249 C   0  0  0  0  0
   28.9970  -14.3077   52.8870 C   0  0  0  0  0
   28.2816  -11.8527   53.2210 C   0  0  0  0  0
   32.5952  -11.3849   53.4103 C   0  0  0  0  0
   35.7805  -13.0443   52.0972 C   0  0  0  0  0
   36.6607  -13.7545   52.8141 C   0  0  0  0  0
   37.6025  -14.9421   52.3286 C   0  0  0  0  0
   39.0798  -14.8121   52.6528 C   0  0  0  0  0
   39.8841  -15.9705   52.0012 C   0  0  0  0  0
   39.7523  -17.2372   52.8519 C   0  0  0  0  0
   40.4740  -17.4006   54.0735 C   0  0  0  0  0
   40.3294  -18.4899   54.8918 C   0  0  0  0  0
   39.4094  -19.4640   54.5194 C   0  0  0  0  0
   38.6852  -19.3313   53.3699 C   0  0  0  0  0
   37.8012  -20.3398   53.0316 C   0  0  0  0  0
   37.0185  -20.2381   51.8753 C   0  0  0  0  0
   37.1842  -19.1542   51.0024 C   0  0  0  0  0
   38.0481  -18.1019   51.3419 C   0  0  0  0  0
   38.7910  -18.2429   52.4967 C   0  0  0  0  0
   39.7489  -13.5234   52.1470 C   0  0  0  0  0
   40.0711  -12.3248   54.1187 C   0  0  0  0  0
   39.5483  -11.3823   55.1197 C   0  0  0  0  0
   40.0846  -11.7355   56.5786 C   0  0  0  0  0
   40.1138  -10.5704   57.6155 C   0  0  0  0  0
   39.1029   -9.1893   53.9345 C   0  0  0  0  0
   37.9520   -8.2258   53.8323 C   0  0  0  0  0
   37.3804   -7.6886   55.1225 C   0  0  0  0  0
   38.5323   -6.7859   55.6185 C   0  0  0  0  0
   38.8873   -5.7155   54.5244 C   0  0  0  0  0
   39.2953   -6.3034   53.1996 C   0  0  0  0  0
   38.1496   -7.2409   52.6880 C   0  0  0  0  0
   36.7145  -10.0373   52.4531 C   0  0  0  0  0
   39.3713  -12.3650   53.0263 N   0  0  0  0  0
   39.4946  -10.8134   58.7436 N   0  0  0  0  0
   38.7628  -10.2164   54.6555 N   0  0  0  0  0
   36.7301   -9.1235   53.4293 N   0  0  0  0  0
   35.3814   -9.3087   48.2578 O   0  0  0  0  0
   29.8252  -14.6637   53.8004 O   0  0  0  0  0
   28.1973  -15.2433   52.3800 O   0  0  0  0  0
   28.0524  -12.0728   54.4018 O   0  0  0  0  0
   27.9691  -10.7630   52.7477 O   0  0  0  0  0
   40.8475  -13.1952   54.3926 O   0  0  0  0  0
   40.6530   -9.5433   57.3583 O   0  0  0  0  0
   40.2821   -9.0640   53.4424 O   0  0  0  0  0
   37.7838  -10.5251   51.9841 O   0  0  0  0  0
   35.5304   -8.1991   50.1636 O   0  0  0  0  0
  2  1  1  0  0  0
  1 55  2  0  0  0
  1 46  1  0  0  0
  3  2  1  0  0  0
  4  3  1  0  0  0
 41  3  1  0  0  0
 14  4  1  0  0  0
  4  5  1  0  0  0
  5 13  2  0  0  0
  5  6  1  0  0  0
  6  7  2  0  0  0
  7  8  1  0  0  0
  9  8  2  0  0  0
  8 10  1  0  0  0
 13  9  1  0  0  0
 11 10  1  0  0  0
 10 12  1  0  0  0
 47 11  2  0  0  0
 11 48  1  0  0  0
 49 12  2  0  0  0
 12 50  1  0  0  0
 15 14  2  0  0  0
 16 15  1  0  0  0
 17 16  1  0  0  0
 18 17  1  0  0  0
 17 29  1  0  0  0
 19 18  1  0  0  0
 20 19  2  0  0  0
 28 19  1  0  0  0
 21 20  1  0  0  0
 22 21  2  0  0  0
 22 23  1  0  0  0
 24 23  2  0  0  0
 23 28  1  0  0  0
 24 25  1  0  0  0
 25 26  2  0  0  0
 26 27  1  0  0  0
 28 27  2  0  0  0
 29 42  1  0  0  0
 51 30  2  0  0  0
 31 30  1  0  0  0
 30 42  1  0  0  0
 32 31  1  0  0  0
 31 44  1  0  0  0
 33 32  1  0  0  0
 43 33  1  0  0  0
 33 52  2  0  0  0
 44 34  1  0  0  0
 34 53  2  0  0  0
 34 35  1  0  0  0
 36 35  1  0  0  0
 35 45  1  0  0  0
 35 40  1  0  0  0
 37 36  1  0  0  0
 37 38  1  0  0  0
 38 39  1  0  0  0
 39 40  1  0  0  0
 54 41  2  0  0  0
 45 41  1  0  0  0
M  END
>  <MOLID> (2AOAB00)
2AOAB00

>  <SMILES_CANONICAL> (2AOAB00)
OC(=O)C[C@H]1C(=O)NC2(CCCCC2)C(=O)N[C@H](CC(=O)N)C(=O)NC[C@@H](CC=C[C@@H]1c1ccc(cc1)C(C(=O)O)C(=O)O)Cc1cccc2ccccc12	

>  <OB_MW> (2AOAB00)
754.321

>  <OB_logP> (2AOAB00)
5.0681

>  <OB_PSA> (2AOAB00)
242.29

>  <OB_MR> (2AOAB00)
213.237

>  <FINGERPRINT> (2AOAB00)
0000000000000111000000000000000000000001000000000011011000000000000000000001000000000001000000100000010000000001000001100000000000000000000110000000000001000000000000001000000000000000000000000000000000000000000000000000000100100000000000000000010000001010000100000010000000001001000000000000000010011000100010011100100000001000001100000000000000000000010000000000001110111000000000000001111100000010100000000000101000000000001000000010000000000001110000000000010000000100000000000000000000001100000000000000100000001000000000000100000000000000000000100001000000000000000000010000001101100000001000000001100000000010000000000000101000000001000000000000000000000001000000000011100000001100000011100001100000000001000000001000000000000011000000100101000000000000000110000000000000100000000110000000000010000000000000000010000000000000000000000100000001000000000000001001000000000000000000000000000000001100000000000000000000000010100000000000011000000000000110110010010000000010011000000000000000000000110000000010111000000000

>  <MCT_HBD> (2AOAB00)
7

>  <MCT_HBA> (2AOAB00)
14

>  <MACCS166> (2AOAB00)
000000000000000000000000010000000000000000000000010011000000010001000000000100110001000011110010101000011000011100001101101010111011000111110110111001101111111010111000

>  <EFINDSITE_POCKET> (2AOAB00)
2

>  <FINDSITE_CLUSTER_SMILES> (2AOAB00)
1

>  <FINDSITE_CLUSTER_MACCS> (2AOAB00)
1

$$$$

 OpenBabel07031102133D

  7  6  0  0  0  0  0  0  0  0999 V2000
   40.8421   12.6633   48.6597 C   0  0  0  0  0
   42.1108   12.9038   47.8823 C   0  0  0  0  0
   39.6576   12.7891   47.7369 C   0  0  0  0  0
   43.1909   12.8478   48.4466 O   0  0  0  0  0
   42.0585   13.1532   46.6895 O   0  0  0  0  0
   38.5288   12.6251   48.1684 O   0  0  0  0  0
   39.8272   13.0487   46.5573 O   0  0  0  0  0
  1  3  1  0  0  0
  1  2  1  0  0  0
  4  2  2  0  0  0
  2  5  1  0  0  0
  6  3  2  0  0  0
  3  7  1  0  0  0
M  END
>  <MOLID> (3MAZA00)
3MAZA00

>  <SMILES_CANONICAL> (3MAZA00)
OC(=O)CC(=O)O	

>  <OB_MW> (3MAZA00)
104.011

>  <OB_logP> (3MAZA00)
-0.4543

>  <OB_PSA> (3MAZA00)
74.6

>  <OB_MR> (3MAZA00)
20.0786

>  <FINGERPRINT> (3MAZA00)
0000000000000000000000000000000000000000000000000000000000000000000000000000000000000000000000000000000000000000000000000000000000000000000000000000000000000000000000000000000000000000000000000000000000000000000000000000000000000000000000000000000000000000000000000000000000000001000000000000000000000000000000000000000000000000000000000000000000000000010000000000000000010000000000000001000000000000100000000000000000000000000000000000000000000000000000000000000000000000000000000000000000001000000000000000100000000000000000000000000000000000000000000000000000000000000000000000000100000000000000000000000000000000000000000000000000000000000000000000000000000000000000000000000000000000000010100000000000000001000000000000000000000000000000000000000000000000000100000000000000000000000000000000000000000000000000000000000000000000000000000000000000000000000000000000000000000000000000000000000000000000000000000000000000000000000000000000000000000000000000000000000000000000000000000000000000000000000000000000000000000000

>  <MCT_HBD> (3MAZA00)
2

>  <MCT_HBA> (3MAZA00)
4

>  <MACCS166> (3MAZA00)
000000000000000000000000000000000000000000000000000010000000000000000000000000000000000010000000000000010000000000000000001000000011000100110000010000000110101000010000

>  <EFINDSITE_POCKET> (3MAZA00)
3

>  <FINDSITE_CLUSTER_SMILES> (3MAZA00)
1

>  <FINDSITE_CLUSTER_MACCS> (3MAZA00)
1

$$$$

 OpenBabel07031101263D

 55 59  0  0  0  0  0  0  0  0999 V2000
   31.4186    6.5976   32.2366 C   0  0  0  0  0
   30.1965    5.9012   32.7575 C   0  0  0  0  0
   29.2767    7.0448   32.3459 C   0  0  0  0  0
   28.3043    7.7356   33.3217 C   0  0  0  0  0
   28.7290    7.6651   34.7557 C   0  0  0  0  0
   29.4308    8.7170   35.3297 C   0  0  0  0  0
   29.8713    8.7724   36.6571 C   0  0  0  0  0
   29.5631    7.6652   37.4593 C   0  0  0  0  0
   30.1014    7.7469   38.8447 C   0  0  0  0  0
   29.2108    8.2646   39.9141 C   0  0  0  0  0
   30.6931    6.4725   39.3131 C   0  0  0  0  0
   28.8921    6.5709   36.8994 C   0  0  0  0  0
   28.4274    6.5228   35.5757 C   0  0  0  0  0
   28.2977    9.2130   32.9034 C   0  0  0  0  0
   27.2592    9.7820   32.3263 C   0  0  0  0  0
   27.2517   11.2552   31.9358 C   0  0  0  0  0
   26.4259   11.4707   30.6490 C   0  0  0  0  0
   26.4556   12.9256   30.1514 C   0  0  0  0  0
   25.9786   13.9538   31.1248 C   0  0  0  0  0
   26.9002   14.7607   31.9480 C   0  0  0  0  0
   28.2977   14.6538   31.8223 C   0  0  0  0  0
   29.1488   15.4376   32.5963 C   0  0  0  0  0
   28.6134   16.3478   33.5177 C   0  0  0  0  0
   27.2330   16.4742   33.6000 C   0  0  0  0  0
   26.3840   15.6997   32.8124 C   0  0  0  0  0
   25.0060   15.8422   32.9587 C   0  0  0  0  0
   24.1381   15.0774   32.1753 C   0  0  0  0  0
   24.5935   14.1271   31.2855 C   0  0  0  0  0
   26.8580   10.5925   29.4537 C   0  0  0  0  0
   25.1501    8.7835   29.3150 C   0  0  0  0  0
   24.8537    7.3529   29.7145 C   0  0  0  0  0
   23.5747    6.7421   29.1283 C   0  0  0  0  0
   23.5350    5.3013   29.5786 C   0  0  0  0  0
   26.8553    6.0258   28.8412 C   0  0  0  0  0
   27.8884    4.9966   29.4130 C   0  0  0  0  0
   27.0780    3.6618   29.5672 C   0  0  0  0  0
   27.9971    2.4464   29.8959 C   0  0  0  0  0
   29.2312    2.3228   28.9436 C   0  0  0  0  0
   30.0859    3.6295   28.8899 C   0  0  0  0  0
   29.1728    4.8371   28.5112 C   0  0  0  0  0
   28.7478    6.7110   30.9701 C   0  0  0  0  0
   26.3294    9.2492   29.6719 N   0  0  0  0  0
   23.0448    5.0757   30.7973 N   0  0  0  0  0
   25.9392    6.3747   29.7492 N   0  0  0  0  0
   28.2671    5.4804   30.7397 N   0  0  0  0  0
   31.3897    7.8266   32.4074 O   0  0  0  0  0
   29.7954    8.7222   40.9084 O   0  0  0  0  0
   27.9885    8.2535   39.7476 O   0  0  0  0  0
   30.9379    6.3291   40.5567 O   0  0  0  0  0
   30.9505    5.5723   38.4726 O   0  0  0  0  0
   23.9768    4.4354   28.8284 O   0  0  0  0  0
   26.9163    6.4493   27.6949 O   0  0  0  0  0
   24.3197    9.5297   28.7873 O   0  0  0  0  0
   28.8442    7.5761   30.1211 O   0  0  0  0  0
   32.3223    6.0245   31.6761 O   0  0  0  0  0
 46  1  2  0  0  0
  1 55  1  0  0  0
  1  2  1  0  0  0
  3  2  1  0  0  0
  4  3  1  0  0  0
  3 41  1  0  0  0
  5  4  1  0  0  0
 14  4  1  0  0  0
  6  5  2  0  0  0
  5 13  1  0  0  0
  7  6  1  0  0  0
  7  8  2  0  0  0
  9  8  1  0  0  0
  8 12  1  0  0  0
 10  9  1  0  0  0
  9 11  1  0  0  0
 47 10  2  0  0  0
 10 48  1  0  0  0
 49 11  2  0  0  0
 11 50  1  0  0  0
 12 13  2  0  0  0
 14 15  2  0  0  0
 16 15  1  0  0  0
 16 17  1  0  0  0
 18 17  1  0  0  0
 17 29  1  0  0  0
 19 18  1  0  0  0
 20 19  2  0  0  0
 19 28  1  0  0  0
 25 20  1  0  0  0
 21 20  1  0  0  0
 22 21  2  0  0  0
 23 22  1  0  0  0
 23 24  2  0  0  0
 24 25  1  0  0  0
 25 26  2  0  0  0
 26 27  1  0  0  0
 27 28  2  0  0  0
 29 42  1  0  0  0
 42 30  1  0  0  0
 30 53  2  0  0  0
 30 31  1  0  0  0
 31 44  1  0  0  0
 31 32  1  0  0  0
 32 33  1  0  0  0
 43 33  1  0  0  0
 33 51  2  0  0  0
 44 34  1  0  0  0
 35 34  1  0  0  0
 34 52  2  0  0  0
 45 35  1  0  0  0
 35 40  1  0  0  0
 35 36  1  0  0  0
 36 37  1  0  0  0
 37 38  1  0  0  0
 39 38  1  0  0  0
 40 39  1  0  0  0
 54 41  2  0  0  0
 41 45  1  0  0  0
M  END
>  <MOLID> (2AOBC01)
2AOBC01

>  <SMILES_CANONICAL> (2AOBC01)
OC(=O)C[C@H]1C(=O)NC2(CCCCC2)C(=O)N[C@H](CC(=O)N)C(=O)NC[C@@H](CC=C[C@@H]1c1ccc(cc1)C(C(=O)O)C(=O)O)Cc1cccc2ccccc12	

>  <OB_MW> (2AOBC01)
754.321

>  <OB_logP> (2AOBC01)
5.0681

>  <OB_PSA> (2AOBC01)
242.29

>  <OB_MR> (2AOBC01)
213.237

>  <FINGERPRINT> (2AOBC01)
0000000000000111000000000000000000000001000000000011011000000000000000000001000000000001000000100000010000000001000001100000000000000000000110000000000001000000000000001000000000000000000000000000000000000000000000000000000100100000000000000000010000001010000100000010000000001001000000000000000010011000100010011100100000001000001100000000000000000000010000000000001110111000000000000001111100000010100000000000101000000000001000000010000000000001110000000000010000000100000000000000000000001100000000000000100000001000000000000100000000000000000000100001000000000000000000010000001101100000001000000001100000000010000000000000101000000001000000000000000000000001000000000011100000001100000011100001100000000001000000001000000000000011000000100101000000000000000110000000000000100000000110000000000010000000000000000010000000000000000000000100000001000000000000001001000000000000000000000000000000001100000000000000000000000010100000000000011000000000000110110010010000000010011000000000000000000000110000000010111000000000

>  <MCT_HBD> (2AOBC01)
7

>  <MCT_HBA> (2AOBC01)
14

>  <MACCS166> (2AOBC01)
000000000000000000000000010000000000000000000000010011000000010001000000000100110001000011110010101000011000011100001101101010111011000111110110111001101111111010111000

>  <EFINDSITE_POCKET> (2AOBC01)
4

>  <FINDSITE_CLUSTER_SMILES> (2AOBC01)
1

>  <FINDSITE_CLUSTER_MACCS> (2AOBC01)
1

$$$$

 OpenBabel07031101263D

 55 59  0  0  0  0  0  0  0  0999 V2000
   31.9934    6.5664   32.0131 C   0  0  0  0  0
   31.0568    7.4164   32.8590 C   0  0  0  0  0
   29.5539    7.4723   32.4823 C   0  0  0  0  0
   28.9464    6.8585   31.2453 C   0  0  0  0  0
   27.8686    5.4228   29.6023 C   0  0  0  0  0
   27.1532    4.0579   29.5518 C   0  0  0  0  0
   28.1412    2.8632   29.7921 C   0  0  0  0  0
   29.4814    2.9335   29.0120 C   0  0  0  0  0
   30.1521    4.3448   28.9558 C   0  0  0  0  0
   29.0862    5.4307   28.6025 C   0  0  0  0  0
   26.7680    6.4262   29.0901 C   0  0  0  0  0
   24.7602    7.8076   29.8663 C   0  0  0  0  0
   23.6204    7.2425   29.0193 C   0  0  0  0  0
   23.4481    5.8294   29.5245 C   0  0  0  0  0
   25.1052    9.2456   29.6067 C   0  0  0  0  0
   27.0886   10.8495   29.7655 C   0  0  0  0  0
   26.6468   11.8142   30.8594 C   0  0  0  0  0
   27.4950   11.6214   32.1438 C   0  0  0  0  0
   27.4089   10.1902   32.7018 C   0  0  0  0  0
   28.4862    9.4479   32.9161 C   0  0  0  0  0
   26.7902   13.2495   30.3426 C   0  0  0  0  0
   26.2728   14.2851   31.2977 C   0  0  0  0  0
   24.8969   14.5199   31.4398 C   0  0  0  0  0
   24.4705   15.4884   32.3537 C   0  0  0  0  0
   25.3539   16.2312   33.1361 C   0  0  0  0  0
   26.7196   16.0167   33.0054 C   0  0  0  0  0
   27.5995   16.7398   33.7837 C   0  0  0  0  0
   28.9705   16.5720   33.6757 C   0  0  0  0  0
   29.4720   15.6071   32.7578 C   0  0  0  0  0
   28.5955   14.8381   32.0000 C   0  0  0  0  0
   27.2143   15.0532   32.1197 C   0  0  0  0  0
   28.5060    8.0309   33.4736 C   0  0  0  0  0
   28.9488    7.9464   34.9026 C   0  0  0  0  0
   28.6262    6.7918   35.6470 C   0  0  0  0  0
   29.0572    6.7725   36.9687 C   0  0  0  0  0
   29.7797    7.8316   37.5675 C   0  0  0  0  0
   30.2562    7.8142   38.9811 C   0  0  0  0  0
   30.6451    6.4750   39.4347 C   0  0  0  0  0
   29.4089    8.3912   40.0942 C   0  0  0  0  0
   30.0762    8.9822   36.8176 C   0  0  0  0  0
   29.6019    9.0000   35.5153 C   0  0  0  0  0
   28.3753    5.6785   30.9750 N   0  0  0  0  0
   25.8809    6.8690   29.9733 N   0  0  0  0  0
   23.0070    5.6745   30.7810 N   0  0  0  0  0
   26.3780    9.5778   29.8580 N   0  0  0  0  0
   31.8978    5.3645   32.1710 O   0  0  0  0  0
   28.9457    7.7163   30.4045 O   0  0  0  0  0
   26.7571    6.7147   27.8899 O   0  0  0  0  0
   23.7701    4.9133   28.7814 O   0  0  0  0  0
   24.2228   10.0396   29.2833 O   0  0  0  0  0
   30.8017    5.5309   38.6143 O   0  0  0  0  0
   30.8185    6.3747   40.6892 O   0  0  0  0  0
   28.1477    8.4717   39.9698 O   0  0  0  0  0
   30.0485    8.8018   41.1007 O   0  0  0  0  0
   32.7805    7.1134   31.2320 O   0  0  0  0  0
 46  1  2  0  0  0
  1 55  1  0  0  0
  1  2  1  0  0  0
  3  2  2  0  0  0
  4  3  1  0  0  0
  3 32  1  0  0  0
 42  4  1  0  0  0
 47  4  2  0  0  0
  6  5  1  0  0  0
 11  5  1  0  0  0
 10  5  1  0  0  0
  5 42  1  0  0  0
  7  6  1  0  0  0
  7  8  1  0  0  0
  8  9  1  0  0  0
 10  9  1  0  0  0
 48 11  2  0  0  0
 11 43  1  0  0  0
 13 12  1  0  0  0
 12 43  1  0  0  0
 12 15  1  0  0  0
 14 13  1  0  0  0
 49 14  2  0  0  0
 14 44  1  0  0  0
 50 15  2  0  0  0
 15 45  1  0  0  0
 45 16  1  0  0  0
 16 17  1  0  0  0
 17 21  1  0  0  0
 17 18  1  0  0  0
 19 18  1  0  0  0
 19 20  2  0  0  0
 32 20  1  0  0  0
 21 22  1  0  0  0
 23 22  2  0  0  0
 22 31  1  0  0  0
 23 24  1  0  0  0
 24 25  2  0  0  0
 25 26  1  0  0  0
 31 26  2  0  0  0
 26 27  1  0  0  0
 27 28  2  0  0  0
 29 28  1  0  0  0
 30 29  2  0  0  0
 31 30  1  0  0  0
 32 33  1  0  0  0
 34 33  2  0  0  0
 33 41  1  0  0  0
 34 35  1  0  0  0
 35 36  2  0  0  0
 36 40  1  0  0  0
 36 37  1  0  0  0
 38 37  1  0  0  0
 37 39  1  0  0  0
 51 38  2  0  0  0
 38 52  1  0  0  0
 53 39  2  0  0  0
 39 54  1  0  0  0
 41 40  2  0  0  0
M  END
>  <MOLID> (2AOBA01)
2AOBA01

>  <SMILES_CANONICAL> (2AOBA01)
OC(=O)/C=C/1\C(=O)NC2(CCCCC2)C(=O)N[C@H](CC(=O)N)C(=O)NC[C@@H](CC=C[C@@H]1c1ccc(cc1)C(C(=O)O)C(=O)O)Cc1cccc2ccccc12	

>  <OB_MW> (2AOBA01)
752.306

>  <OB_logP> (2AOBA01)
4.9882

>  <OB_PSA> (2AOBA01)
242.29

>  <OB_MR> (2AOBA01)
212.763

>  <FINGERPRINT> (2AOBA01)
0000000000000011000000000000001000000001000000001011011000000000000000000001000000000001000000100000010000001001000001101000000000000000000000000000000001000000000000001000000000000000000000000000000000010000000000000000000100100000000000000000010000001010000100010010000000001001000000000000000010011000000010011100000000001000001100000000100000000000010000000000001110111000000000000001111100000010100000000000101000000000001000010010000000000001110000000000010000000100000000000000000000001100000000000000100000101000000000000100000000000000000000100001000000000001000000010000001100100001001000000001100000000010000000100001101000000001000000000000000000000001000000010011100000001100000011111001100000000001000000001000000000000011000000100101000000001000000110000000000000100000000110000000000010001100000000001110110000000000000000000100100001000000000000001001000000000000000000000000000000001100000000000000000000000010100000000000011000000000000110110010010000000010011000000000000000000010100000000010011000000000

>  <MCT_HBD> (2AOBA01)
7

>  <MCT_HBA> (2AOBA01)
14

>  <MACCS166> (2AOBA01)
000000000000000000000000010000000000000000000000010011000000010001000000000100110101000011110010101100011000011100001101101010111011000111110110111001101111111010111000

>  <EFINDSITE_POCKET> (2AOBA01)
4

>  <FINDSITE_CLUSTER_SMILES> (2AOBA01)
1

>  <FINDSITE_CLUSTER_MACCS> (2AOBA01)
1

$$$$

 OpenBabel07031101293D

 15 14  0  0  0  0  0  0  0  0999 V2000
   37.8832   13.5049   33.8580 C   0  0  0  0  0
   37.1954   14.0035   35.1106 C   0  0  0  0  0
   34.9716   13.7608   34.2560 C   0  0  0  0  0
   33.5784   13.4476   34.7509 C   0  0  0  0  0
   31.9494   11.8876   33.9880 C   0  0  0  0  0
   31.5947   10.4105   34.1411 C   0  0  0  0  0
   32.0860    8.9216   32.2594 C   0  0  0  0  0
   31.5867    8.8815   30.8158 C   0  0  0  0  0
   33.2248    7.0444   30.0519 C   0  0  0  0  0
   33.2238    6.2138   29.0075 C   0  0  0  0  0
   39.2986   13.6325   33.9304 O   0  0  0  0  0
   35.9187   13.3490   35.2453 O   0  0  0  0  0
   33.2643   12.0793   34.4519 O   0  0  0  0  0
   31.2205    9.8883   32.8755 O   0  0  0  0  0
   31.9916    7.7958   29.9720 O   0  0  0  0  0
 11  1  1  0  0  0
  2  1  1  0  0  0
  2 12  1  0  0  0
 12  3  1  0  0  0
  3  4  1  0  0  0
  4 13  1  0  0  0
 13  5  1  0  0  0
  5  6  1  0  0  0
  6 14  1  0  0  0
 14  7  1  0  0  0
  7  8  1  0  0  0
  8 15  1  0  0  0
  9 15  1  0  0  0
  9 10  1  0  0  0
M  END
>  <MOLID> (2CI8A00)
2CI8A00

>  <SMILES_CANONICAL> (2CI8A00)
OCCOCCOCCOCCOCC	

>  <OB_MW> (2CI8A00)
222.147

>  <OB_logP> (2CI8A00)
0.065

>  <OB_PSA> (2CI8A00)
57.15

>  <OB_MR> (2CI8A00)
55.6858

>  <FINGERPRINT> (2CI8A00)
0000000000000000000000000000000000000000000000000000000000000000000000000000000000000000000000000000000000000000000000000000000000000000000000000000000000000000000000000000000000000000000000000000000000000000000000000000000000000000000000000000000001000000000000000000000000100000000000000000000000000000000000000000000000000000000000000000000000000000010000000000000010000000000000000000000000000000000000000000000000000000000000000000000000000000000000000000000000000000000000000000000000001010000000000000100000000000000000000000000000000000000000000000000000000000000000000000000000000000000000000000000000000000000000000000000000000000000000000000000000000000000000000000000000000000000000000000000000000100000000000000000000000000000010000000000000000000000000000000000000000000000001000000000000000000000000000000000000000000000000000000000000000000000000000000000000000000000000000010000000000000000000000000001000000000000000000000000000000000000000000000000000000000000000000000000000000000000000000000000000000000

>  <MCT_HBD> (2CI8A00)
1

>  <MCT_HBA> (2CI8A00)
5

>  <MACCS166> (2CI8A00)
000000000000000000000000000000000000000000000000000000000000000000000001000000000100010000100000000000010001100001010100000001011011000001111000011010001010101100010000

>  <EFINDSITE_POCKET> (2CI8A00)
4

>  <FINDSITE_CLUSTER_SMILES> (2CI8A00)
2

>  <FINDSITE_CLUSTER_MACCS> (2CI8A00)
2

$$$$
